11
Compound 100, distorted structure 06
C    -0.5552772    1.9137962   -0.2235542 
C    -0.5500218    0.5248051    0.2477111 
H    -1.5579371    2.1679594   -0.7206654 
H     0.1690252    1.9955134   -0.9822753 
H    -0.3923590    2.5523432    0.4978602 
C     0.5969312   -0.0995978    0.8887573 
H     0.4638469   -1.0527327    1.3823355 
H     0.9289037    0.6246117    1.6595980 
CL    2.0853666   -0.2922562   -0.2645639 
C    -1.5535683   -0.3611106    0.0799254 
O    -2.5480136   -1.0601096   -0.2387482 
