Compound 100, distorted structure 08
 OpenBabel12102416353D

 11  9  0  0  0  0  0  0  0  0999 V2000
   -0.5645    1.9995   -0.2144 C   0  0  0  0  0  0  0  0  0  0  0  0
   -0.5084    0.4010    0.1913 C   0  0  0  0  0  0  0  0  0  0  0  0
   -1.6340    2.1607   -0.8088 H   0  0  0  0  0  0  0  0  0  0  0  0
    0.1431    2.0864   -1.0198 H   0  0  0  0  0  0  0  0  0  0  0  0
   -0.4784    2.6277    0.5098 H   0  0  0  0  0  0  0  0  0  0  0  0
    0.6859    0.0061    1.0024 C   0  0  0  0  0  3  0  0  0  0  0  0
    0.4210   -1.0589    1.3492 H   0  0  0  0  0  0  0  0  0  0  0  0
    0.8971    0.7023    1.5994 H   0  0  0  0  0  0  0  0  0  0  0  0
    2.1214   -0.4232   -0.2245 *   0  0  0  0  0  0  0  0  0  0  0  0
   -1.5746   -0.3269   -0.0636 C   0  0  0  0  0  0  0  0  0  0  0  0
   -2.5958   -0.9693   -0.0969 O   0  0  0  0  0  0  0  0  0  0  0  0
  1  2  1  0  0  0  0
  1  5  1  0  0  0  0
  2  6  1  0  0  0  0
  3  1  1  0  0  0  0
  4  1  1  0  0  0  0
  6  7  1  0  0  0  0
  6  8  1  0  0  0  0
 10  2  2  0  0  0  0
 11 10  2  0  0  0  0
M  END
$$$$
