11
Compound 100, distorted structure 08
C    -0.5644956    1.9994804   -0.2143621 
C    -0.5084002    0.4010194    0.1913377 
H    -1.6339737    2.1606700   -0.8087690 
H     0.1431158    2.0863929   -1.0198000 
H    -0.4783789    2.6277111    0.5098069 
C     0.6859374    0.0061262    1.0023960 
H     0.4210392   -1.0588776    1.3491552 
H     0.8970932    0.7022987    1.5994039 
CL    2.1214302   -0.4232238   -0.2244641 
C    -1.5746461   -0.3268648   -0.0635756 
O    -2.5958491   -0.9692901   -0.0969023 
