11
Compound 100, distorted structure 04
C    -0.5905471    1.9255928   -0.2226840 
C    -0.6202087    0.4411684    0.2143068 
H    -1.5798597    2.1334977   -0.7258938 
H     0.2302924    1.9958878   -1.0502549 
H    -0.4098959    2.6140522    0.5110989 
C     0.6059586   -0.0855542    0.9877912 
H     0.3875705   -1.0810139    1.4070959 
H     1.0165304    0.6364087    1.6367589 
CL    2.0195785   -0.3104541   -0.2727900 
C    -1.6705476   -0.3805531    0.0502279 
O    -2.5315121   -1.0734894   -0.1992265 
