11
Compound 100, distorted structure 02
C    -0.6086742    1.8712279   -0.2484653 
C    -0.6044708    0.4600761    0.2456209 
H    -1.5314513    2.1737524   -0.7637407 
H     0.1974005    1.9950938   -1.0298049 
H    -0.4543007    2.6088819    0.5294715 
C     0.5851260   -0.0868846    0.9359562 
H     0.3972401   -1.0181790    1.4057130 
H     0.9483072    0.6418440    1.6806404 
CL    2.0081874   -0.3459935   -0.2241552 
C    -1.6160468   -0.3077747   -0.0059212 
O    -2.5464063   -1.0513438   -0.1626034 
