11
Compound 087, distorted structure 09
C     1.4280511   -0.5358179   -0.0657186 
C     0.5331890   -1.6260928   -0.2001215 
C    -0.9873141   -1.1681703    0.4015013 
H     0.8446998   -2.6331592    0.0823300 
H     0.2214058   -1.7145297   -1.1488693 
S    -1.1720833    0.4222921   -0.1008205 
H    -0.9594492   -1.2594959    1.3868168 
H    -1.5696985   -1.9377325    0.0210781 
S     0.6462702    1.2388621    0.5152038 
H     2.1737761   -0.5216731   -1.0037153 
H     2.0470298   -0.8680667    0.8150419 
