11
Compound 087, distorted structure 01
C     1.5359313   -0.5094962   -0.0480249 
C     0.4769389   -1.6189129   -0.2337698 
C    -0.8804756   -1.2142253    0.3732466 
H     0.8405130   -2.5850117    0.2302176 
H     0.3067107   -1.7802375   -1.3182188 
S    -1.2226091    0.4486022   -0.2116125 
H    -0.8148405   -1.2150997    1.4807460 
H    -1.6799513   -1.8893478    0.0769132 
S     0.6941151    1.1147383    0.3459580 
H     2.1370747   -0.4003139   -0.9537794 
H     2.1919666   -0.7150306    0.7858946 
