11
Compound 087, distorted structure 07
C     1.5334722   -0.6550680   -0.0493877 
C     0.4241365   -1.5359217   -0.1920618 
C    -0.8183043   -1.3285108    0.3533374 
H     0.7119692   -2.5179881    0.2566037 
H     0.4598984   -1.6982890   -1.2247220 
S    -1.2078859    0.5436255   -0.0814109 
H    -0.6800276   -1.2679546    1.4952757 
H    -1.7156660   -1.9704486    0.0645902 
S     0.6095038    1.1140617    0.4767565 
H     2.1304207   -0.3527878   -0.9131332 
H     2.3180406   -0.6698945    0.8237011 
