11
Compound 087, distorted structure 08
C     1.6297349   -0.4661328    0.0460598 
C     0.4576624   -1.5313145   -0.2050332 
C    -0.9543312   -1.2621611    0.3932456 
H     0.7688809   -2.6146354    0.1220667 
H     0.2557321   -1.7901196   -1.2396694 
S    -1.1793735    0.4399004   -0.1546635 
H    -0.8092556   -1.1892527    1.4716563 
H    -1.7541070   -1.8630131    0.0506885 
S     0.6495095    1.0401128    0.3343211 
H     2.1033717   -0.4349294   -0.9211240 
H     2.1025045   -0.8026968    0.7346003 
