11
Compound 087 optimized with r2SCAN-3c
C     1.5370127   -0.5238723   -0.0454617 
C     0.4761833   -1.6268906   -0.2324943 
C    -0.8598787   -1.2266585    0.3923519 
H     0.8335394   -2.5648750    0.2115788 
H     0.3215955   -1.8007328   -1.3013231 
S    -1.2107757    0.4694741   -0.2170317 
H    -0.8177041   -1.2156039    1.4867923 
H    -1.6748066   -1.8810302    0.0632965 
S     0.7083900    1.0946499    0.3649558 
H     2.1455858   -0.4099939   -0.9462797 
H     2.1952025   -0.7329782    0.8031371 
