18
Compound 070, distorted structure 08
C     1.6198888    0.2870761   -1.0727400 
H     1.7030875    1.3624510   -1.5934006 
H     2.4029032   -0.3984341   -1.6764065 
H     2.0740164    0.3658492   -0.1437942 
C     0.3333775   -0.3884349   -1.0188168 
O     0.1699254   -1.4573434   -0.6993655 
N    -0.7091601    0.4865021   -1.4784963 
H    -0.5778263    1.4256339   -1.6315287 
C    -2.0815607    0.0808321   -1.4218817 
H    -2.1951106   -1.0040624   -1.3774129 
H    -2.6884737    0.4510874   -0.4796137 
H    -2.6593200    0.3792010   -2.2881531 
C     0.0572664    0.2202373    2.3618177 
H     0.0622946    1.1085435    3.1566412 
H    -0.5630137    0.3927226    1.5835952 
C     0.8261717   -0.7985918    2.5277131 
H     1.4276261   -1.0225179    3.3565470 
H     0.8328339   -1.5928530    1.7819735 
