18
Compound 070, distorted structure 09
C     1.6764595    0.3270761   -1.1373988 
H     1.7565792    1.3188956   -1.6384383 
H     2.4159180   -0.2862108   -1.6312310 
H     2.0286050    0.3794074   -0.0428800 
C     0.2940038   -0.2721441   -0.9843551 
O     0.0836346   -1.4910012   -0.7403103 
N    -0.6926287    0.3992417   -1.4376603 
H    -0.4495819    1.3771564   -1.6000104 
C    -2.1425639    0.0377131   -1.3777695 
H    -2.0670635   -1.1322380   -1.2286227 
H    -2.6553661    0.4233118   -0.5263295 
H    -2.7363093    0.4279317   -2.2858219 
C    -0.0297457    0.3689303    2.3545310 
H     0.0293650    1.0170002    3.2456026 
H    -0.5269417    0.4109820    1.5294405 
C     0.8657972   -0.7875752    2.4762274 
H     1.5097472   -0.9658428    3.2642768 
H     0.7916196   -1.5643518    1.7921442 
