18
Compound 070, distorted structure 07
C     1.6832341    0.2774898   -1.1547545 
H     1.6358443    1.3434207   -1.5548749 
H     2.3594232   -0.3697880   -1.6771520 
H     2.0505498    0.3432504   -0.1602585 
C     0.3501558   -0.3622268   -1.1339201 
O     0.1768169   -1.4485661   -0.7094659 
N    -0.6811229    0.5142700   -1.4212622 
H    -0.5075283    1.5113776   -1.5847802 
C    -2.1844348    0.0900312   -1.3795880 
H    -2.0609852   -1.0105651   -1.2690293 
H    -2.5771453    0.4949673   -0.4890826 
H    -2.6251598    0.3846279   -2.1920961 
C     0.1131692    0.2227049    2.4518893 
H     0.0954005    1.1082005    3.1546232 
H    -0.5666211    0.4388109    1.5177438 
C     0.8387263   -0.8302465    2.4258489 
H     1.5037934   -0.9219949    3.3781837 
H     0.7813538   -1.5157402    1.6679414 
