18
Compound 070, distorted structure 01
C     1.6839510    0.2955208   -1.1341707 
H     1.7111522    1.3027848   -1.5557774 
H     2.3386487   -0.3764886   -1.6618400 
H     2.0374844    0.3608196   -0.0890602 
C     0.3124284   -0.3477600   -1.0838438 
O     0.1296117   -1.5147194   -0.7417255 
N    -0.7279637    0.4791532   -1.4249661 
H    -0.5150171    1.4656833   -1.6176388 
C    -2.1204087    0.0645062   -1.3525073 
H    -2.1137681   -1.0262368   -1.3134878 
H    -2.6459822    0.4565869   -0.4785056 
H    -2.6414753    0.3742806   -2.2494894 
C     0.0441251    0.2725632    2.4279207 
H     0.0437191    1.0348598    3.1924889 
H    -0.5999464    0.4533936    1.5468967 
C     0.8227237   -0.7890148    2.4876139 
H     1.4763730   -0.9412771    3.3500731 
H     0.8049261   -1.5308439    1.7080961 
