12
Compound 037, distorted structure 02
C     1.6480630   -0.7799130    0.0274765 
N     0.4247608   -0.0209634   -0.0201506 
C     0.5111726    1.4354031    0.0103966 
C    -0.7794614   -0.6059167   -0.0047409 
O    -1.8549147   -0.0749278   -0.0215442 
H     1.4302550   -1.8572901   -0.0190041 
H     2.2416326   -0.5220682    0.8883817 
H     2.2548930   -0.5444496   -0.9107699 
H     1.0344767    1.8059780   -0.8856870 
H     1.0841313    1.7734408    0.9041771 
H    -0.4657051    1.8347639   -0.0201361 
H    -0.6733740   -1.7586076    0.0289298 
