12
Compound 037, distorted structure 06
C     1.6039683   -0.8250438    0.0627343 
N     0.4600096    0.0660077    0.0360077 
C     0.4906033    1.4029121    0.0134064 
C    -0.7552244   -0.6302928    0.0510925 
O    -1.9136882    0.0198085   -0.0319672 
H     1.4272301   -1.8685771   -0.0527857 
H     2.3421340   -0.4592524    0.8571179 
H     2.3229622   -0.5714666   -0.9003391 
H     1.0626144    1.7477160   -0.9233789 
H     1.0314421    1.7623133    0.8054949 
H    -0.3967303    1.8496741    0.0600772 
H    -0.6458989   -1.7382420    0.0836019 
