12
Compound 037, distorted structure 04
C     1.6971475   -0.7732620    0.0282615 
N     0.4358391   -0.0399491    0.0301533 
C     0.4823349    1.4730642    0.0312455 
C    -0.7725047   -0.6699186   -0.0293492 
O    -1.8397212   -0.0867349    0.0120993 
H     1.4731801   -1.8142352    0.0287494 
H     2.2439909   -0.5700934    0.8660201 
H     2.2740787   -0.5283459   -0.9283414 
H     1.0181008    1.7944880   -0.8838021 
H     1.0646562    1.7651287    0.8497061 
H    -0.4485362    1.8828013    0.0208642 
H    -0.6548315   -1.6939570    0.0256392 
