14
Compound 046, distorted structure 04
C    -1.3207346   -0.0015550   -0.6144588 
C    -0.0097320    0.8246839   -0.4920853 
H    -1.3332736   -0.4767702   -1.6206293 
H    -2.1543699    0.7413634   -0.6322548 
O    -1.4336441   -1.0330064    0.3764172 
C     1.2242003   -0.1385579   -0.6990077 
O     0.0785745    1.4281672    0.7853533 
H     0.0997866    1.5128079   -1.2747610 
O     1.4823939   -0.9977966    0.4055212 
H     2.2089566    0.4794652   -0.7236664 
H     1.1211592   -0.6915473   -1.6572125 
H    -1.5387991   -0.5714471    1.1349104 
H     0.6066541    0.8084366    1.3306661 
H     0.6141859   -1.4972667    0.4852971 
