14
Compound 046, distorted structure 01
C    -1.2976555    0.0289191   -0.6464073 
C     0.0371857    0.7633471   -0.5142271 
H    -1.3675837   -0.4647053   -1.6303474 
H    -2.1132897    0.7720817   -0.6079392 
O    -1.4691419   -0.9816237    0.3355201 
C     1.2634838   -0.1434433   -0.6893065 
O     0.0677691    1.4342136    0.7806385 
H     0.0621533    1.5408489   -1.3009409 
O     1.4154678   -0.9948660    0.4477217 
H     2.1571705    0.4503075   -0.7470109 
H     1.1620744   -0.7264555   -1.6004413 
H    -1.5245331   -0.5427960    1.2001387 
H     0.6544210    0.8649877    1.3301011 
H     0.6119039   -1.4886301    0.5427699 
