14
Compound 046, distorted structure 03
C    -1.2684575    0.0530821   -0.6569590 
C     0.0411869    0.7658332   -0.5123819 
H    -1.3057368   -0.4548293   -1.5855685 
H    -2.1371569    0.7750247   -0.5863056 
O    -1.4178709   -0.9810505    0.3659965 
C     1.2055043   -0.1740930   -0.6847816 
O     0.1198142    1.3718729    0.7844924 
H     0.0994028    1.5356877   -1.2741902 
O     1.4563132   -1.0146123    0.4595908 
H     2.1386133    0.4466617   -0.7193898 
H     1.1487419   -0.7517065   -1.5713951 
H    -1.5527943   -0.5343190    1.1528294 
H     0.6302853    0.8728840    1.3612363 
H     0.6436335   -1.5164935    0.5301782 
