14
Compound 044, distorted structure 02
C    -1.4235430   -0.7228992   -0.2576137 
C    -1.4294457    0.7608034    0.2524248 
C    -0.0452907    1.2556022   -0.1489260 
C     0.8272000    0.0072331    0.0191555 
O     2.0399309    0.0240310    0.0275825 
C    -0.0339726   -1.2120666    0.1057414 
H    -1.5934619   -0.7744199   -1.3019986 
H    -2.2444729   -1.3287703    0.2482771 
H    -1.5841900    0.7647340    1.2961173 
H    -2.2751389    1.3218224   -0.2369417 
H     0.3552056    2.0452200    0.4490809 
H     0.0279169    1.5429130   -1.1849500 
H     0.0082066   -1.5485773    1.2059126 
H     0.3624073   -2.0375090   -0.4924260 
