14
Compound 044 optimized with r2SCAN-3c
C    -1.4497322   -0.7352147   -0.2320827 
C    -1.4493235    0.7354060    0.2328583 
C    -0.0457365    1.2306160   -0.1312708 
C     0.8485465   -0.0000029   -0.0002257 
O     2.0569622    0.0000388    0.0005169 
C    -0.0457434   -1.2307282    0.1301736 
H    -1.5907012   -0.7779432   -1.3194101 
H    -2.2489096   -1.3235391    0.2274707 
H    -1.5887518    0.7781989    1.3203867 
H    -2.2490312    1.3238573   -0.2256073 
H     0.3387524    2.0595571    0.4693792 
H     0.0007142    1.5450586   -1.1840938 
H     0.0018450   -1.5465774    1.1825074 
H     0.3381704   -2.0589107   -0.4719084 
