14
Compound 044, distorted structure 03
C    -1.4591636   -0.7476775   -0.2619262 
C    -1.4565788    0.7053175    0.2547699 
C    -0.0125845    1.2085592   -0.1123150 
C     0.8854054   -0.0109859    0.0366181 
O     2.0306655    0.0316026   -0.0317125 
C    -0.0530248   -1.2673491    0.1215091 
H    -1.5789416   -0.7627426   -1.3211064 
H    -2.2434627   -1.3098061    0.2077176 
H    -1.6079390    0.8069015    1.3421732 
H    -2.2723713    1.3511777   -0.2513429 
H     0.3412974    2.0406314    0.4728307 
H    -0.0155263    1.5720138   -1.1845242 
H    -0.0329518   -1.5438140    1.1616609 
H     0.3454638   -2.0669635   -0.4634460 
