14
Compound 044, distorted structure 08
C    -1.4569883   -0.7164692   -0.2866982 
C    -1.5309594    0.6654531    0.2707234 
C    -0.0417764    1.2690347   -0.1506994 
C     0.9249286    0.0652428    0.0210940 
O     2.0325651    0.0256151    0.0189884 
C     0.0000915   -1.2311290    0.0833908 
H    -1.5768104   -0.8171774   -1.3003904 
H    -2.3049124   -1.3287990    0.2466110 
H    -1.6566050    0.8245348    1.3289006 
H    -2.2682708    1.3228840   -0.2976208 
H     0.4135217    2.1196336    0.4635129 
H    -0.0620207    1.5571684   -1.2386390 
H    -0.0330451   -1.5735312    1.1993881 
H     0.2846065   -2.0212418   -0.5010113 
