13
Compound 043 optimized with r2SCAN-3c
C    -1.4193418   -1.1022413   -0.5074442 
C    -0.7510882   -0.0929867    0.4260860 
H    -0.9534164   -2.0829259   -0.3900934 
H    -1.3097992   -0.7881822   -1.5517474 
H    -2.4861543   -1.1914838   -0.2758492 
C     0.7632128   -0.1223965    0.1568312 
H    -0.8843624   -0.4254422    1.4655154 
N    -1.2772595    1.2626056    0.1834722 
O     1.2266928    0.9353803   -0.5298617 
H     0.4444944    1.5214077   -0.6525382 
O     1.4651839   -1.0389215    0.5023665 
H    -2.2261494    1.2305048   -0.1692635 
H    -1.2877759    1.8131601    1.0343524 
