12
Compound 039 optimized with r2SCAN-3c
C     1.4925181   -0.6767476   -0.2128527 
C     0.1241322   -1.2339811    0.1730953 
C    -0.8112847   -0.0502387   -0.0162886 
O    -2.0077258   -0.0466695   -0.0998582 
O    -0.0724595    1.0985165   -0.0758235 
C     1.3315691    0.8081592    0.1263726 
H     1.6635684   -0.8001241   -1.2873494 
H     2.3273652   -1.1343474    0.3236330 
H     0.0775006   -1.5238037    1.2307660 
H    -0.2193610   -2.0832239   -0.4201411 
H     1.5773022    1.0208561    1.1750683 
H     1.9028122    1.4787572   -0.5198258 
