12
Compound 039, distorted structure 06
C     1.4796064   -0.7416957   -0.1642633 
C     0.0846992   -1.1762258    0.2081324 
C    -0.7895686   -0.0521768   -0.0479025 
O    -2.0315392   -0.0052482   -0.1571712 
O    -0.0748146    1.1537368   -0.0323348 
C     1.3141247    0.8691645    0.1109908 
H     1.6695480   -0.7661310   -1.3353365 
H     2.3856785   -1.1065645    0.2765644 
H     0.0488329   -1.4778999    1.1844094 
H    -0.2704877   -2.0997327   -0.4439530 
H     1.5943014    1.0229324    1.2015931 
H     1.8462254    1.4957549   -0.4687981 
