Compound 039, distorted structure 03
 OpenBabel12102416353D

 12 12  0  0  0  0  0  0  0  0999 V2000
    1.5201   -0.6678   -0.2236 C   0  0  0  0  0  0  0  0  0  0  0  0
    0.1557   -1.2516    0.1816 C   0  0  0  0  0  0  0  0  0  0  0  0
   -0.7697   -0.0364    0.0050 C   0  0  0  0  0  0  0  0  0  0  0  0
   -2.0385   -0.0595   -0.1196 O   0  0  0  0  0  0  0  0  0  0  0  0
   -0.0952    1.1381   -0.0839 O   0  0  0  0  0  0  0  0  0  0  0  0
    1.3317    0.8320    0.1222 C   0  0  0  0  0  0  0  0  0  0  0  0
    1.6701   -0.8179   -1.2486 H   0  0  0  0  0  0  0  0  0  0  0  0
    2.3014   -1.1037    0.3041 H   0  0  0  0  0  0  0  0  0  0  0  0
    0.0724   -1.4964    1.2205 H   0  0  0  0  0  0  0  0  0  0  0  0
   -0.1818   -2.0783   -0.3994 H   0  0  0  0  0  0  0  0  0  0  0  0
    1.5560    0.9903    1.1592 H   0  0  0  0  0  0  0  0  0  0  0  0
    1.9462    1.4980   -0.4764 H   0  0  0  0  0  0  0  0  0  0  0  0
  1  6  1  0  0  0  0
  1  2  1  0  0  0  0
  1  8  1  0  0  0  0
  2  9  1  0  0  0  0
  3  2  1  0  0  0  0
  4  3  2  0  0  0  0
  5  3  1  0  0  0  0
  5  6  1  0  0  0  0
  6 11  1  0  0  0  0
  7  1  1  0  0  0  0
 10  2  1  0  0  0  0
 12  6  1  0  0  0  0
M  END
$$$$
