12
Compound 039, distorted structure 08
C     1.4313310   -0.7092450   -0.1482416 
C     0.1805205   -1.3061420    0.1814551 
C    -0.8259708    0.0132476    0.0053864 
O    -2.0358234   -0.0749956   -0.1358803 
O    -0.0845417    1.1434537   -0.1326526 
C     1.3004509    0.9017020    0.0415222 
H     1.6952557   -0.8427883   -1.3248233 
H     2.3901520   -1.1936450    0.3458904 
H    -0.0153038   -1.5683639    1.1823296 
H    -0.2003983   -2.1231529   -0.4999996 
H     1.5000420    0.9395697    1.2175412 
H     1.8861859    1.5037069   -0.5336453 
