12
Compound 039, distorted structure 05
C     1.4919186   -0.6896212   -0.2145602 
C     0.0744593   -1.1962264    0.1261945 
C    -0.8568289   -0.0803424   -0.0423237 
O    -1.9535620   -0.0859164   -0.1001697 
O    -0.0825004    1.0502928   -0.0917918 
C     1.3422300    0.8260222    0.1263359 
H     1.6964836   -0.8475407   -1.2612971 
H     2.3577237   -1.0864685    0.3651462 
H     0.0951278   -1.4886573    1.1887557 
H    -0.2023658   -2.1349104   -0.3873165 
H     1.5830935    1.0172002    1.1582984 
H     1.9486406    1.4984516   -0.4709558 
