12
Compound 003, distorted structure 02
H    -2.4956920   -0.0249821   -0.0158480 
C    -1.3838605   -0.0356047    0.0121966 
C    -0.7224866    1.2035121    0.0085585 
C     0.6989884    1.2088554   -0.0208093 
C     1.3827684    0.0149998    0.0132761 
C     0.7371130   -1.2073855    0.0041388 
C    -0.6940102   -1.1943695   -0.0136529 
H    -1.2232999   -2.1724203    0.0062632 
H     1.2616432   -2.1496010    0.0194295 
H     2.4542563    0.0451529    0.0222790 
H     1.2251287    2.1757532   -0.0130317 
H    -1.2736384    2.1474835   -0.0162574 
