12
Compound 003, distorted structure 07
H    -2.5002250   -0.0108433   -0.0448877 
C    -1.4545076   -0.0615448    0.0640898 
C    -0.6504797    1.1429199   -0.0269951 
C     0.6115057    1.1830689   -0.0599691 
C     1.3638177    0.0527593   -0.0581818 
C     0.6543122   -1.1478452    0.0349877 
C    -0.7294779   -1.1617131    0.0608223 
H    -1.1856712   -2.1637623   -0.0002929 
H     1.3345641   -2.1150229   -0.0544813 
H     2.4730427    0.0449959    0.0243225 
H     1.2467705    2.1015737    0.0390215 
H    -1.2590079    2.1031335   -0.0078860 
