12
Compound 003 optimized with r2SCAN-3c
H    -2.4780899   -0.0396185    0.0003633 
C    -1.3919173   -0.0222554    0.0000885 
C    -0.7152364    1.1943201    0.0001249 
C     0.6766979    1.2165767   -0.0003453 
C     1.3919048    0.0222466   -0.0000833 
C     0.7152201   -1.1943275    0.0002624 
C    -0.6767105   -1.2165821   -0.0001385 
H    -1.2047569   -2.1659213   -0.0007072 
H     1.2733552   -2.1262925    0.0009182 
H     2.4780794    0.0395958   -0.0002863 
H     1.2047486    2.1659189   -0.0007117 
H    -1.2733769    2.1262849    0.0003315 
