12
Compound 003, distorted structure 03
H    -2.4596858   -0.0453135    0.0152129 
C    -1.4079573   -0.0079265   -0.0135969 
C    -0.7115726    1.2068354    0.0238099 
C     0.7097653    1.2420140   -0.0267561 
C     1.3591506    0.0400799   -0.0281196 
C     0.7039743   -1.1505580   -0.0387225 
C    -0.6836501   -1.1913525   -0.0200933 
H    -1.1811292   -2.1844974   -0.0149048 
H     1.2312397   -2.1279429    0.0013113 
H     2.4565323    0.0191319    0.0073580 
H     1.2056628    2.1381495   -0.0397297 
H    -1.2959070    2.1272011   -0.0363373 
