12
Compound 003, distorted structure 01
H    -2.4929983   -0.0350776    0.0194213 
C    -1.3745697   -0.0093172    0.0084549 
C    -0.6964726    1.2082443    0.0042639 
C     0.6811797    1.2141663   -0.0009504 
C     1.3836748    0.0190213    0.0048864 
C     0.7215399   -1.1953461   -0.0001552 
C    -0.6634446   -1.2304464   -0.0096063 
H    -1.1893529   -2.1598145    0.0120572 
H     1.2545628   -2.1255692   -0.0100687 
H     2.4761765    0.0449717   -0.0042452 
H     1.2170616    2.1661804   -0.0099972 
H    -1.2824926    2.1441080   -0.0191531 
