12
Compound 002, distorted structure 09
C     0.7636437   -0.7972190   -0.1512585 
C    -0.8006943   -0.5398796    0.2261016 
C    -0.7217225    0.8124907   -0.0403887 
C     0.8396623    0.7041088    0.0359808 
H     0.7753149   -0.9989792   -1.1185905 
H     1.1727005   -1.6377578    0.3774973 
H    -1.1110969   -0.9325414    1.2826227 
H    -1.6007588   -1.1450138   -0.4382126 
H    -1.2042066    1.5593200    0.4057486 
H    -0.7181613    1.0266825   -1.1177607 
H     1.1045581    0.7333703    1.1748080 
H     1.5377008    1.2229537   -0.5447078 
