12
Compound 002, distorted structure 02
C     0.6816322   -0.8346994   -0.1569321 
C    -0.8298693   -0.6747303    0.1611629 
C    -0.6465744    0.8352614   -0.1592444 
C     0.8391049    0.6842327    0.1586807 
H     0.8584374   -1.1007005   -1.1734238 
H     1.2342162   -1.5792327    0.5202697 
H    -1.0891607   -0.8704553    1.2031585 
H    -1.5884604   -1.1923347   -0.4893393 
H    -1.2129799    1.5694079    0.4724289 
H    -0.8639699    1.1209313   -1.1629674 
H     1.1029665    0.8321508    1.1747086 
H     1.5649942    1.2101938   -0.4731571 
