19
Compound 057, distorted structure 06
C    -0.4439971    1.4191423   -0.4416182 
C    -1.6775770    0.5301317    0.1247966 
C    -1.4133376   -0.9548455   -0.0916637 
H    -2.5780010    0.9051506   -0.3495636 
H    -1.7218304    0.7757568    1.1329760 
C    -0.0734993   -1.4980855    0.4603383 
H    -1.4778811   -1.1920775   -1.1927427 
H    -2.2273263   -1.4266250    0.4005920 
O     0.9646636   -1.0243804   -0.5058547 
H    -0.1157970   -2.6167674    0.2911555 
H     0.1161648   -1.1952526    1.5088048 
C     1.6710435    0.1615854    0.0311664 
C     0.7712234    1.3191299    0.4370704 
H     2.2938468    0.4182170   -0.8595363 
H     2.4242871   -0.0938478    0.8420128 
H     1.4172193    2.2101475    0.3374731 
H     0.5208744    1.1852768    1.4209777 
H    -0.7554106    2.4887447   -0.3236486 
H    -0.2829988    1.2441905   -1.4083995 
