Compound 057, distorted structure 09
 OpenBabel12102416353D

 19 19  0  0  0  0  0  0  0  0999 V2000
   -0.4028    1.5146   -0.3477 C   0  0  0  0  0  0  0  0  0  0  0  0
   -1.5794    0.6407    0.1752 C   0  0  0  0  0  0  0  0  0  0  0  0
   -1.3571   -0.9930   -0.1230 C   0  0  0  0  0  0  0  0  0  0  0  0
   -2.5920    0.8423   -0.3903 H   0  0  0  0  0  0  0  0  0  0  0  0
   -1.7429    0.7201    1.1895 H   0  0  0  0  0  0  0  0  0  0  0  0
   -0.0948   -1.4986    0.4448 C   0  0  0  0  0  0  0  0  0  0  0  0
   -1.4139   -1.1401   -1.1038 H   0  0  0  0  0  0  0  0  0  0  0  0
   -2.1642   -1.3978    0.3829 H   0  0  0  0  0  0  0  0  0  0  0  0
    0.9732   -0.9658   -0.4041 O   0  0  0  0  0  0  0  0  0  0  0  0
   -0.0130   -2.5162    0.3037 H   0  0  0  0  0  0  0  0  0  0  0  0
    0.1065   -1.1778    1.5198 H   0  0  0  0  0  0  0  0  0  0  0  0
    1.6391    0.1035   -0.0070 C   0  0  0  0  0  0  0  0  0  0  0  0
    0.8744    1.3297    0.4420 C   0  0  0  0  0  0  0  0  0  0  0  0
    2.2661    0.4674   -0.8354 H   0  0  0  0  0  0  0  0  0  0  0  0
    2.3115   -0.1590    0.7466 H   0  0  0  0  0  0  0  0  0  0  0  0
    1.4356    2.1349    0.2748 H   0  0  0  0  0  0  0  0  0  0  0  0
    0.5440    1.2601    1.4459 H   0  0  0  0  0  0  0  0  0  0  0  0
   -0.8756    2.4889   -0.4290 H   0  0  0  0  0  0  0  0  0  0  0  0
   -0.2694    1.2548   -1.5364 H   0  0  0  0  0  0  0  0  0  0  0  0
  1  2  1  0  0  0  0
  1 13  1  0  0  0  0
  2  5  1  0  0  0  0
  3  2  1  0  0  0  0
  3  8  1  0  0  0  0
  3  6  1  0  0  0  0
  4  2  1  0  0  0  0
  6 11  1  0  0  0  0
  7  3  1  0  0  0  0
  9 12  1  0  0  0  0
  9  6  1  0  0  0  0
 10  6  1  0  0  0  0
 12 13  1  0  0  0  0
 12 15  1  0  0  0  0
 13 17  1  0  0  0  0
 14 12  1  0  0  0  0
 16 13  1  0  0  0  0
 18  1  1  0  0  0  0
 19  1  1  0  0  0  0
M  END
$$$$
