19
Compound 057, distorted structure 07
C    -0.5188830    1.3931905   -0.3970354 
C    -1.5804644    0.5841704    0.0587582 
C    -1.4852900   -0.9081751   -0.1366151 
H    -2.4936547    0.8844138   -0.3768534 
H    -1.7538826    0.7727826    1.1176106 
C    -0.1176352   -1.4396188    0.4002906 
H    -1.4797411   -1.1220967   -1.2267351 
H    -2.2868032   -1.4445955    0.3698889 
O     0.9485222   -0.9734566   -0.3941772 
H    -0.0174960   -2.5762843    0.4139689 
H     0.1019752   -1.1950471    1.4116516 
C     1.6235503    0.0558429    0.0223506 
C     0.7398109    1.3188388    0.3700626 
H     2.2745213    0.3615768   -0.9032768 
H     2.3667558   -0.0884531    0.8668105 
H     1.3999553    2.1525930    0.3974321 
H     0.5801667    1.2816855    1.5385261 
H    -0.8529801    2.5103018   -0.4306150 
H    -0.1979677    1.2129669   -1.4003458 
