Compound 086, distorted structure 05
 OpenBabel12102416353D

  9  9  0  0  0  0  0  0  0  0999 V2000
    0.0619   -1.2252    0.0649 C   0  0  0  0  0  0  0  0  0  0  0  0
    1.3479   -0.7155    0.0105 C   0  0  0  0  0  0  0  0  0  0  0  0
    1.2323    0.6502   -0.0505 C   0  0  0  0  0  0  0  0  0  0  0  0
    0.0570    1.2131   -0.0798 C   0  0  0  0  0  0  0  0  0  0  0  0
   -1.0869    0.0476    0.0575 S   0  0  0  0  0  0  0  0  0  0  0  0
   -0.3079   -2.2680   -0.0013 H   0  0  0  0  0  0  0  0  0  0  0  0
    2.1817   -1.3521   -0.0668 H   0  0  0  0  0  0  0  0  0  0  0  0
    2.1349    1.3575    0.0696 H   0  0  0  0  0  0  0  0  0  0  0  0
   -0.1965    2.3420   -0.0228 H   0  0  0  0  0  0  0  0  0  0  0  0
  2  1  2  0  0  0  0
  3  2  1  0  0  0  0
  3  8  1  0  0  0  0
  4  3  2  0  0  0  0
  4  9  1  0  0  0  0
  4  5  1  0  0  0  0
  5  1  1  0  0  0  0
  6  1  1  0  0  0  0
  7  2  1  0  0  0  0
M  END
$$$$
