9
Compound 086, distorted structure 03
C     0.0819698   -1.2802084   -0.0351309 
C     1.3030804   -0.7058813    0.0111388 
C     1.2626695    0.6808254   -0.0244451 
C     0.0368843    1.2919197   -0.0438458 
S    -1.1804909   -0.0113360   -0.0342329 
H    -0.2753022   -2.2329718    0.0482648 
H     2.2114055   -1.2713839   -0.0098340 
H     2.1649573    1.3299546   -0.0250131 
H    -0.1960147    2.2827086   -0.0203559 
