9
Compound 086, distorted structure 02
C     0.0621891   -1.2223492    0.0216215 
C     1.2918004   -0.6840721    0.0092808 
C     1.3016248    0.6903690   -0.0124335 
C     0.0619696    1.2732896   -0.0260152 
S    -1.1519703    0.0272580    0.0136615 
H    -0.2406103   -2.3028267    0.0059902 
H     2.1977308   -1.3169211   -0.0146030 
H     2.1951648    1.3162429    0.0310967 
H    -0.2107744    2.2904094   -0.0146288 
