9
Compound 086, distorted structure 04
C     0.0163906   -1.1812163    0.0039807 
C     1.3092700   -0.6934215   -0.0001116 
C     1.3637779    0.6851568    0.0142937 
C     0.0477089    1.2492593   -0.0143686 
S    -1.0899338   -0.0171181    0.0225981 
H    -0.1834861   -2.2356821   -0.0327043 
H     2.1366187   -1.3214719    0.0413148 
H     2.2809409    1.3041865   -0.0582976 
H    -0.1675788    2.2298492    0.0414968 
