9
Compound 086, distorted structure 01
C     0.0255417   -1.2593916   -0.0246884 
C     1.3100126   -0.6875306    0.0142519 
C     1.3253615    0.7056251    0.0256828 
C     0.0436170    1.2312275   -0.0192430 
S    -1.1541819   -0.0155547   -0.0242462 
H    -0.2444259   -2.2926905   -0.0080651 
H     2.1968210   -1.3209358    0.0097311 
H     2.2010802    1.3194477   -0.0106951 
H    -0.2568653    2.2681940    0.0193405 
