Compound 034, distorted structure 04
 OpenBabel12102416353D

 11 11  0  0  0  0  0  0  0  0999 V2000
    0.8278    1.0208    0.1131 C   0  0  0  0  0  0  0  0  0  0  0  0
    1.1125    1.2532    1.0899 H   0  0  0  0  0  0  0  0  0  0  0  0
    1.2237    1.5474   -0.7821 H   0  0  0  0  0  0  0  0  0  0  0  0
    1.1235   -0.3986   -0.2357 O   0  0  0  0  0  0  0  0  0  0  0  0
   -0.0233   -1.0875    0.1732 C   0  0  0  0  0  0  0  0  0  0  0  0
   -1.1636   -0.3739   -0.2518 O   0  0  0  0  0  0  0  0  0  0  0  0
   -0.7813    1.0156    0.1133 C   0  0  0  0  0  0  0  0  0  0  0  0
   -1.1665    1.2618    1.0435 H   0  0  0  0  0  0  0  0  0  0  0  0
   -1.2248    1.6159   -0.7955 H   0  0  0  0  0  0  0  0  0  0  0  0
    0.0596   -1.2649    1.3046 H   0  0  0  0  0  0  0  0  0  0  0  0
    0.0307   -2.0799   -0.2892 H   0  0  0  0  0  0  0  0  0  0  0  0
  1  7  1  0  0  0  0
  1  2  1  0  0  0  0
  3  1  1  0  0  0  0
  4  1  1  0  0  0  0
  4  5  1  0  0  0  0
  5 10  1  0  0  0  0
  6  7  1  0  0  0  0
  6  5  1  0  0  0  0
  7  8  1  0  0  0  0
  9  7  1  0  0  0  0
 11  5  1  0  0  0  0
M  END
$$$$
