11
Compound 034 optimized with r2SCAN-3c
C     0.7739366    0.9739942    0.0592696 
H     1.1714562    1.2983184    1.0320420 
H     1.2089029    1.5898596   -0.7327700 
O     1.1292371   -0.3888719   -0.1994031 
C     0.0024925   -1.1355861    0.2096128 
O    -1.1283382   -0.3934834   -0.1968295 
C    -0.7776485    0.9716695    0.0566958 
H    -1.1794972    1.2996241    1.0264195 
H    -1.2115693    1.5824906   -0.7398716 
H     0.0040741   -1.2669690    1.3109468 
H     0.0038871   -2.1025750   -0.3016172 
