11
Compound 034, distorted structure 08
C     0.7522434    0.8448066    0.0095753 
H     1.0065250    1.3258902    1.0188557 
H     1.0964372    1.4214236   -0.8234747 
O     1.0842660   -0.5132255   -0.2680974 
C     0.0824836   -1.2655998    0.0902828 
O    -1.1752433   -0.4287591   -0.1721594 
C    -0.8334296    0.9344175    0.0601412 
H    -1.2365202    1.2198858    1.0454556 
H    -1.1698852    1.5920793   -0.8680029 
H    -0.1592911   -1.2448647    1.3238648 
H     0.1258233   -2.2806833   -0.1494892 
