11
Compound 034, distorted structure 02
C     0.7506294    0.9870781    0.0311208 
H     1.1518085    1.3000276    1.0615995 
H     1.2342532    1.6107738   -0.7480428 
O     1.1395981   -0.4032816   -0.2280013 
C     0.0003849   -1.1656070    0.2311811 
O    -1.1383391   -0.3675413   -0.1696890 
C    -0.7484120    0.9861933    0.0494087 
H    -1.1560921    1.3275770    1.0422555 
H    -1.2258889    1.5960970   -0.7599704 
H     0.0124019   -1.2560231    1.3397030 
H     0.0084977   -2.1097526   -0.3087371 
