11
Compound 034, distorted structure 03
C     0.7289115    0.9840462    0.0877166 
H     1.1669268    1.2982011    1.0270914 
H     1.1650857    1.5669034   -0.7423203 
O     1.1190116   -0.3587786   -0.1611219 
C     0.0376736   -1.1400837    0.2174461 
O    -1.1263739   -0.3605674   -0.1758504 
C    -0.7300725    0.9844285    0.0729168 
H    -1.1491444    1.3113622    1.0404068 
H    -1.1883919    1.5795460   -0.7856852 
H     0.0429097   -1.2419264    1.2640745 
H     0.0121571   -2.1280848   -0.3294678 
