11
Compound 034, distorted structure 04
C     0.8278484    1.0208423    0.1130592 
H     1.1125134    1.2532450    1.0899418 
H     1.2236523    1.5473906   -0.7820917 
O     1.1234568   -0.3986259   -0.2357278 
C    -0.0232777   -1.0875332    0.1732248 
O    -1.1636225   -0.3738962   -0.2518394 
C    -0.7813055    1.0156135    0.1133285 
H    -1.1665110    1.2618433    1.0434774 
H    -1.2247546    1.6159148   -0.7954869 
H     0.0595997   -1.2648585    1.3045949 
H     0.0307130   -2.0798620   -0.2892185 
