9
Compound 098 optimized with r2SCAN-3c
C     2.5412521   -0.0499126   -0.0000611 
C     1.1122220    0.3925213   -0.0000629 
H     3.0670644    0.3360151   -0.8814228 
H     2.6279550   -1.1400458    0.0004936 
H     3.0673581    0.3369462    0.8807120 
C     0.0953649   -0.4587585    0.0001194 
Cl   -1.5793779    0.0584948    0.0000021 
H     0.9117875    1.4622542   -0.0002501 
H     0.2051863   -1.5390624    0.0003441 
