9
Compound 098, distorted structure 02
C     2.5243317   -0.0141340    0.0273111 
C     1.1418476    0.3871087    0.0340352 
H     3.1034934    0.3436011   -0.8581643 
H     2.6364466   -1.1328385   -0.0240882 
H     3.0811366    0.3116443    0.8906830 
C     0.0634425   -0.4606491    0.0213359 
CL   -1.5729707    0.0350597   -0.0304069 
H     0.9010487    1.4618174   -0.0136550 
H     0.1792365   -1.5083191    0.0321903 
