Compound 098, distorted structure 03
 OpenBabel12102416353D

  9  7  0  0  0  0  0  0  0  0999 V2000
    2.4828   -0.0149    0.0636 C   0  0  0  0  0  0  0  0  0  0  0  0
    1.0834    0.3986    0.0479 C   0  0  0  0  0  0  0  0  0  0  0  0
    3.1255    0.3273   -0.8605 H   0  0  0  0  0  0  0  0  0  0  0  0
    2.6696   -1.0696   -0.0322 H   0  0  0  0  0  0  0  0  0  0  0  0
    3.0749    0.3778    0.9337 H   0  0  0  0  0  0  0  0  0  0  0  0
    0.1056   -0.4667    0.0431 C   0  0  0  0  0  3  0  0  0  0  0  0
   -1.5495   -0.0078    0.0163 *   0  0  0  0  0  0  0  0  0  0  0  0
    0.8803    1.5273    0.0376 H   0  0  0  0  0  0  0  0  0  0  0  0
    0.2566   -1.6049    0.0118 H   0  0  0  0  0  0  0  0  0  0  0  0
  1  5  1  0  0  0  0
  2  1  1  0  0  0  0
  3  1  1  0  0  0  0
  4  1  1  0  0  0  0
  6  2  2  0  0  0  0
  8  2  1  0  0  0  0
  9  6  1  0  0  0  0
M  END
$$$$
