9
Compound 098, distorted structure 09
C     2.6584266   -0.0584780   -0.0054175 
C     1.2571641    0.3628595   -0.0740226 
H     3.0951525    0.3113050   -0.9688610 
H     2.5255687   -0.9834924    0.0051125 
H     2.8823370    0.4502601    0.8393034 
C     0.1637215   -0.3700074   -0.1320004 
CL   -1.5001695   -0.0287059    0.1620950 
H     0.8581450    1.4038097   -0.1169777 
H     0.1111415   -1.3574282    0.1671505 
