9
Compound 098, distorted structure 04
C     2.5182280   -0.0994304    0.0194203 
C     1.0691291    0.3080583    0.0775092 
H     2.9874150    0.2592885   -0.8504599 
H     2.7143041   -1.2005396   -0.0027986 
H     3.1092624    0.3063943    0.8492495 
C     0.1599846   -0.5507849   -0.0222990 
CL   -1.5775228    0.0878220    0.1012231 
H     0.8631619    1.3818967   -0.0988861 
H     0.1600751   -1.6220758    0.0986507 
