12
Compound 061 optimized with r2SCAN-3c
C     0.4445498    0.9259530    0.0260592 
C    -0.7862409    0.5479509    0.2539200 
C    -1.9942715    0.1466633    0.5250001 
H    -2.4177078    0.0777282    1.5224834 
F    -2.8597438   -0.2292242   -0.4473589 
C     1.6112978   -0.0139757   -0.0286688 
H     0.6950285    1.9741926   -0.1359316 
C     1.3426975   -1.4884590    0.1231713 
H     2.2868049   -2.0334341    0.1057009 
H     0.6956529   -1.8351870   -0.6902857 
H     0.8084425   -1.6862355    1.0583269 
O     2.7259194    0.4404612   -0.1992619 
