12
Compound 061, distorted structure 09
C     0.5217166    0.9942667    0.0967949 
C    -0.8678633    0.4681644    0.1756474 
C    -1.9856813    0.1115437    0.5934032 
H    -2.4316438   -0.0042928    1.4369579 
F    -2.8595849   -0.2422347   -0.5262146 
C     1.6076547    0.0143312    0.0335722 
H     0.6645025    1.9658254   -0.1026863 
C     1.4047164   -1.5134702    0.0816075 
H     2.3164573   -2.1083364    0.0297229 
H     0.6926031   -1.9158187   -0.6427568 
H     0.7483387   -1.6891243    1.0806431 
O     2.7428667    0.4049947   -0.1959640 
