Compound 061 optimized with r2SCAN-3c
 OpenBabel12102416353D

 12 11  0  0  0  0  0  0  0  0999 V2000
    0.4445    0.9260    0.0261 C   0  0  0  0  0  0  0  0  0  0  0  0
   -0.7862    0.5480    0.2539 C   0  0  0  0  0  0  0  0  0  0  0  0
   -1.9943    0.1467    0.5250 C   0  0  0  0  0  0  0  0  0  0  0  0
   -2.4177    0.0777    1.5225 H   0  0  0  0  0  0  0  0  0  0  0  0
   -2.8597   -0.2292   -0.4474 F   0  0  0  0  0  0  0  0  0  0  0  0
    1.6113   -0.0140   -0.0287 C   0  0  0  0  0  0  0  0  0  0  0  0
    0.6950    1.9742   -0.1359 H   0  0  0  0  0  0  0  0  0  0  0  0
    1.3427   -1.4885    0.1232 C   0  0  0  0  0  0  0  0  0  0  0  0
    2.2868   -2.0334    0.1057 H   0  0  0  0  0  0  0  0  0  0  0  0
    0.6957   -1.8352   -0.6903 H   0  0  0  0  0  0  0  0  0  0  0  0
    0.8084   -1.6862    1.0583 H   0  0  0  0  0  0  0  0  0  0  0  0
    2.7259    0.4405   -0.1993 O   0  0  0  0  0  0  0  0  0  0  0  0
  1  2  2  0  0  0  0
  2  3  2  0  0  0  0
  3  4  1  0  0  0  0
  5  3  1  0  0  0  0
  6  1  1  0  0  0  0
  6  8  1  0  0  0  0
  7  1  1  0  0  0  0
  8 11  1  0  0  0  0
  9  8  1  0  0  0  0
 10  8  1  0  0  0  0
 12  6  2  0  0  0  0
M  END
$$$$
