12
Compound 061, distorted structure 04
C     0.4788759    0.9791529    0.0331115 
C    -0.8369406    0.6042823    0.2894520 
C    -2.0107828    0.1720758    0.5694424 
H    -2.4563744    0.1204708    1.5754580 
F    -2.8718885   -0.2371331   -0.4741917 
C     1.6565431    0.0493362   -0.0154042 
H     0.7052980    2.0385311   -0.1986787 
C     1.3372985   -1.5093740    0.1881316 
H     2.2929825   -2.0176446    0.1198380 
H     0.7149424   -1.7956517   -0.7272088 
H     0.7608304   -1.6937815    1.1177380 
O     2.7364122    0.4490707   -0.2527564 
