12
Compound 061, distorted structure 08
C     0.4546100    0.9297015    0.0912185 
C    -0.6670286    0.5118544    0.2377326 
C    -1.8764277    0.0370971    0.4181006 
H    -2.5021847   -0.0236605    1.6055008 
F    -2.9087849   -0.3174946   -0.4334563 
C     1.6017734    0.0477110    0.0013513 
H     0.7607831    2.0530735   -0.1479821 
C     1.4538988   -1.4427253    0.1589769 
H     2.3126313   -1.9763134    0.0631789 
H     0.7564247   -1.7493250   -0.7150529 
H     0.7913867   -1.7674573    0.9991861 
O     2.7227598    0.5207671   -0.1064788 
