15
Compound 084 optimized with r2SCAN-3c
P    -1.0786110    0.5754075   -0.4411868 
P     0.7588998   -0.1971094    0.5812537 
H    -1.1999691    1.6925309    0.4338345 
C    -2.3591583   -0.5033541    0.4024690 
C     1.9424867    1.0964011   -0.0644781 
C     1.1532222   -1.5650208   -0.6301073 
H    -2.2108689   -0.5695479    1.4834092 
H    -2.3135480   -1.5093107   -0.0256241 
H    -3.3554586   -0.1002460    0.1962443 
H     1.7697075    2.0463207    0.4505830 
H     1.8461059    1.2520936   -1.1445868 
H     2.9660260    0.7758773    0.1576512 
H     2.1434636   -1.9706201   -0.3957475 
H     1.1441055   -1.2168140   -1.6686307 
H     0.4287471   -2.3782543   -0.5206172 
