15
Compound 084, distorted structure 05
P    -1.0175943    0.5070418   -0.3971709 
P     0.8219143   -0.2370984    0.5383506 
H    -1.2393907    1.6633260    0.4976434 
C    -2.3587585   -0.4525431    0.4537871 
C     1.9026497    1.0526460   -0.1188712 
C     1.0831815   -1.5907603   -0.6797098 
H    -2.1551816   -0.5012383    1.4390421 
H    -2.2962971   -1.4414000   -0.0119126 
H    -3.2877132   -0.0752191    0.2033587 
H     1.8035286    2.0731189    0.3999402 
H     1.8120397    1.2951602   -1.1800742 
H     2.9251455    0.7892655    0.0980964 
H     2.0823038   -2.0332151   -0.4130181 
H     1.1853013   -1.1960860   -1.6387956 
H     0.3647408   -2.4170170   -0.5070097 
