15
Compound 084, distorted structure 04
P    -1.0710157    0.5701584   -0.4372612 
P     0.7425107   -0.2470632    0.5453531 
H    -1.1976247    1.7108563    0.4478189 
C    -2.3302692   -0.4798229    0.3778754 
C     1.8899111    1.0818117   -0.1164208 
C     1.1155370   -1.5179099   -0.6103658 
H    -2.1828273   -0.5528347    1.4317324 
H    -2.2884306   -1.5543389    0.0059731 
H    -3.3805010   -0.0998199    0.1580390 
H     1.7670418    2.0616355    0.4472744 
H     1.8498337    1.2431256   -1.1161378 
H     2.9511154    0.7670959    0.1335301 
H     2.1466088   -1.9332831   -0.4044197 
H     1.1355464   -1.2151768   -1.6671909 
H     0.3799216   -2.4234621   -0.4937520 
