15
Compound 084, distorted structure 01
P    -1.0639270    0.5689511   -0.4550799 
P     0.7440356   -0.2039790    0.5788920 
H    -1.1834523    1.6769463    0.4163508 
C    -2.3767858   -0.5191965    0.3967835 
C     1.9310542    1.1126816   -0.0614079 
C     1.1441568   -1.5523706   -0.6472728 
H    -2.2235746   -0.5738947    1.4786782 
H    -2.3216611   -1.5241592   -0.0370834 
H    -3.3684715   -0.0927241    0.1965586 
H     1.7523531    2.0431469    0.4395081 
H     1.8589676    1.2441005   -1.1319493 
H     2.9750275    0.7644695    0.1404771 
H     2.1464614   -1.9566158   -0.3934631 
H     1.1541474   -1.2314514   -1.6703442 
H     0.4142846   -2.3708042   -0.5363950 
