15
Compound 084, distorted structure 09
P    -1.1392261    0.4898598   -0.5230167 
P     0.8137553   -0.2546873    0.4764162 
H    -1.1648778    1.7092085    0.4295812 
C    -2.3973731   -0.4404098    0.3591771 
C     1.8803549    1.1582827   -0.1223664 
C     1.1704527   -1.5547626   -0.5405006 
H    -2.3054077   -0.4670012    1.4680921 
H    -2.2551233   -1.5600012   -0.0636602 
H    -3.4418483   -0.0113413    0.1431318 
H     1.8330628    2.1454432    0.4954034 
H     1.9426626    1.3083642   -1.1106244 
H     2.9643721    0.7118957    0.1665434 
H     2.2463612   -2.0054112   -0.4927301 
H     1.1713332   -1.1588218   -1.7461328 
H     0.3904747   -2.2759652   -0.4592034 
