Compound 071, distorted structure 09
 OpenBabel12102416353D

 21 19  0  0  0  0  0  0  0  0999 V2000
    1.8470   -2.2775   -0.6513 C   0  0  0  0  0  0  0  0  0  0  0  0
    1.8362   -2.2353   -1.7004 H   0  0  0  0  0  0  0  0  0  0  0  0
    1.8416   -2.2385    0.6729 C   0  0  0  0  0  0  0  0  0  0  0  0
    1.8658   -2.2760    1.6099 H   0  0  0  0  0  0  0  0  0  0  0  0
   -0.6452    0.3861   -2.5177 C   0  0  0  0  0  0  0  0  0  0  0  0
   -0.6420   -0.7388   -2.5543 H   0  0  0  0  0  0  0  0  0  0  0  0
   -1.6999    0.7200   -2.5698 H   0  0  0  0  0  0  0  0  0  0  0  0
   -0.1466    0.6862   -3.4442 H   0  0  0  0  0  0  0  0  0  0  0  0
    0.0343    0.9034   -1.2858 C   0  0  0  0  0  0  0  0  0  0  0  0
   -0.0637    1.9494   -1.2724 H   0  0  0  0  0  0  0  0  0  0  0  0
    1.0706    0.6323   -1.1990 H   0  0  0  0  0  0  0  0  0  0  0  0
   -0.6731    0.4589    0.0130 C   0  0  0  0  0  0  0  0  0  0  0  0
   -1.7311    0.7748   -0.0383 H   0  0  0  0  0  0  0  0  0  0  0  0
   -0.6954   -0.7425   -0.0713 H   0  0  0  0  0  0  0  0  0  0  0  0
   -0.0700    0.8175    1.2026 C   0  0  0  0  0  0  0  0  0  0  0  0
   -0.0312    1.9955    1.3604 H   0  0  0  0  0  0  0  0  0  0  0  0
    0.9918    0.5400    1.2063 H   0  0  0  0  0  0  0  0  0  0  0  0
   -0.7432    0.3557    2.5997 C   0  0  0  0  0  0  0  0  0  0  0  0
   -0.6540   -0.7224    2.4865 H   0  0  0  0  0  0  0  0  0  0  0  0
   -0.1486    0.7155    3.4206 H   0  0  0  0  0  0  0  0  0  0  0  0
   -1.7360    0.6022    2.6401 H   0  0  0  0  0  0  0  0  0  0  0  0
  1  3  3  0  0  0  0
  2  1  1  0  0  0  0
  3  4  1  0  0  0  0
  5  9  1  0  0  0  0
  6  5  1  0  0  0  0
  7  5  1  0  0  0  0
  8  5  1  0  0  0  0
  9 10  1  0  0  0  0
  9 11  1  0  0  0  0
  9 12  1  0  0  0  0
 12 15  1  0  0  0  0
 13 12  1  0  0  0  0
 14 12  1  0  0  0  0
 15 17  1  0  0  0  0
 15 16  1  0  0  0  0
 15 18  1  0  0  0  0
 18 21  1  0  0  0  0
 18 20  1  0  0  0  0
 19 18  1  0  0  0  0
M  END
$$$$
