Compound 071, distorted structure 04
 OpenBabel12102416353D

 21 19  0  0  0  0  0  0  0  0999 V2000
    1.8949   -2.3032   -0.5903 C   0  0  0  0  0  0  0  0  0  0  0  0
    1.8739   -2.2589   -1.6717 H   0  0  0  0  0  0  0  0  0  0  0  0
    1.8652   -2.3200    0.6441 C   0  0  0  0  0  0  0  0  0  0  0  0
    1.8782   -2.3165    1.7066 H   0  0  0  0  0  0  0  0  0  0  0  0
   -0.6345    0.3258   -2.5564 C   0  0  0  0  0  0  0  0  0  0  0  0
   -0.6653   -0.7805   -2.5551 H   0  0  0  0  0  0  0  0  0  0  0  0
   -1.7412    0.6676   -2.5786 H   0  0  0  0  0  0  0  0  0  0  0  0
   -0.1615    0.7086   -3.4894 H   0  0  0  0  0  0  0  0  0  0  0  0
    0.0184    0.8737   -1.2761 C   0  0  0  0  0  0  0  0  0  0  0  0
   -0.0476    1.9685   -1.2729 H   0  0  0  0  0  0  0  0  0  0  0  0
    1.0181    0.5868   -1.2430 H   0  0  0  0  0  0  0  0  0  0  0  0
   -0.6924    0.3821    0.0192 C   0  0  0  0  0  0  0  0  0  0  0  0
   -1.7316    0.7368    0.0273 H   0  0  0  0  0  0  0  0  0  0  0  0
   -0.6884   -0.6859   -0.0065 H   0  0  0  0  0  0  0  0  0  0  0  0
   -0.0018    0.8998    1.2343 C   0  0  0  0  0  0  0  0  0  0  0  0
   -0.0230    1.9433    1.2675 H   0  0  0  0  0  0  0  0  0  0  0  0
    1.0726    0.5336    1.2507 H   0  0  0  0  0  0  0  0  0  0  0  0
   -0.6541    0.3375    2.5759 C   0  0  0  0  0  0  0  0  0  0  0  0
   -0.6214   -0.7528    2.5396 H   0  0  0  0  0  0  0  0  0  0  0  0
   -0.1677    0.6734    3.4281 H   0  0  0  0  0  0  0  0  0  0  0  0
   -1.6909    0.6776    2.6346 H   0  0  0  0  0  0  0  0  0  0  0  0
  1  3  3  0  0  0  0
  2  1  1  0  0  0  0
  3  4  1  0  0  0  0
  5  6  1  0  0  0  0
  5  9  1  0  0  0  0
  7  5  1  0  0  0  0
  8  5  1  0  0  0  0
  9 10  1  0  0  0  0
  9 11  1  0  0  0  0
  9 12  1  0  0  0  0
 12 13  1  0  0  0  0
 12 15  1  0  0  0  0
 14 12  1  0  0  0  0
 15 17  1  0  0  0  0
 15 16  1  0  0  0  0
 15 18  1  0  0  0  0
 18 21  1  0  0  0  0
 18 20  1  0  0  0  0
 19 18  1  0  0  0  0
M  END
$$$$
