21
Compound 071 optimized with r2SCAN-3c
C     1.9002621   -2.2901492   -0.6003968 
H     1.8993761   -2.2880448   -1.6643814 
C     1.9005631   -2.2900515    0.6004296 
H     1.8995674   -2.2880895    1.6644136 
C    -0.6753644    0.3416668   -2.5416609 
H    -0.6634254   -0.7547082   -2.5512194 
H    -1.7228374    0.6578217   -2.6038849 
H    -0.1665069    0.6922221   -3.4456476 
C    -0.0137372    0.8807476   -1.2750818 
H    -0.0140852    1.9793602   -1.2952194 
H     1.0408100    0.5735316   -1.2482183 
C    -0.7003667    0.3951738   -0.0000081 
H    -1.7502782    0.7238848   -0.0000169 
H    -0.7186895   -0.7039828   -0.0000106 
C    -0.0137568    0.8807505    1.2750772 
H    -0.0141560    1.9793628    1.2952241 
H     1.0408104    0.5735957    1.2482256 
C    -0.6753776    0.3416468    2.5416515 
H    -0.6634020   -0.7547285    2.5512189 
H    -0.1665432    0.6922252    3.4456423 
H    -1.7228624    0.6577651    2.6038632 
