21
Compound 071, distorted structure 02
C     1.9150380   -2.2966627   -0.6231265 
H     1.8813246   -2.2952006   -1.6577450 
C     1.8834475   -2.3030552    0.5835665 
H     1.8943853   -2.3049831    1.6531952 
C    -0.6502955    0.3634376   -2.5352585 
H    -0.6724947   -0.7672959   -2.5740147 
H    -1.7146698    0.6597183   -2.6022963 
H    -0.1751161    0.6913487   -3.4466315 
C    -0.0079184    0.8586609   -1.2997503 
H     0.0067979    1.9841618   -1.3015296 
H     1.0555311    0.5875190   -1.2277736 
C    -0.6975772    0.3830471   -0.0032600 
H    -1.7487334    0.7237421   -0.0189991 
H    -0.7428247   -0.7266010    0.0215597 
C    -0.0058844    0.8912829    1.2579400 
H     0.0064648    2.0021923    1.3157839 
H     1.0518157    0.5569827    1.2411700 
C    -0.6652761    0.3578718    2.5180648 
H    -0.6778817   -0.7613254    2.5382958 
H    -0.1647828    0.7169962    3.4508668 
H    -1.7432972    0.6509163    2.6007118 
