21
Compound 071, distorted structure 01
C     1.8896057   -2.2842327   -0.6124563 
H     1.9025581   -2.2766829   -1.6599892 
C     1.9052190   -2.2912571    0.6092224 
H     1.8980864   -2.2890778    1.6709946 
C    -0.6628623    0.3392627   -2.5525093 
H    -0.6627525   -0.7496672   -2.5594254 
H    -1.7155433    0.6591711   -2.6047616 
H    -0.1634723    0.6928685   -3.4392931 
C    -0.0109030    0.8754349   -1.2742277 
H    -0.0231555    1.9684852   -1.3042166 
H     1.0455373    0.5663586   -1.2544480 
C    -0.6981912    0.3853825   -0.0083228 
H    -1.7578824    0.7244190    0.0058875 
H    -0.7251864   -0.7006873    0.0097832 
C    -0.0061415    0.8796391    1.2785641 
H    -0.0130237    1.9783058    1.2956115 
H     1.0409832    0.5682928    1.2541046 
C    -0.6800502    0.3485947    2.5346507 
H    -0.6635997   -0.7490726    2.5626774 
H    -0.1733092    0.6893932    3.4530995 
H    -1.7155304    0.6505385    2.6007801 
