21
Compound 071, distorted structure 05
C     1.8666816   -2.2707917   -0.6225433 
H     1.9185938   -2.3111990   -1.6737136 
C     1.8790876   -2.2769607    0.6228481 
H     1.9164336   -2.2841984    1.6512942 
C    -0.7120806    0.3414731   -2.4964333 
H    -0.6245686   -0.7748179   -2.6011125 
H    -1.7398950    0.6264752   -2.6257288 
H    -0.1985948    0.7272558   -3.4119973 
C    -0.0331012    0.8807395   -1.2322748 
H    -0.0160359    2.0076010   -1.2694752 
H     1.0380748    0.6005239   -1.2139325 
C    -0.6759446    0.4131029   -0.0441498 
H    -1.7559128    0.7089712   -0.0417872 
H    -0.7099709   -0.7470436   -0.0111794 
C    -0.0605140    0.8556263    1.2353502 
H    -0.0330667    2.0074393    1.2670149 
H     1.0067104    0.5616089    1.2619293 
C    -0.6519777    0.3574955    2.5848292 
H    -0.6893568   -0.7043431    2.5706859 
H    -0.1865200    0.6734942    3.4737318 
H    -1.7464236    0.6174629    2.6153356 
