11
Compound 015, distorted structure 05
C    -0.7353373   -1.1744526    0.0347997 
C     0.6968576   -1.1698022    0.0198021 
C     1.4243192    0.0273507    0.0057255 
C     0.6954953    1.1575654   -0.0169434 
C    -0.6694177    1.1663882   -0.0016403 
N    -1.3623349    0.0084870   -0.0377072 
H     1.1720354    2.1384381    0.0425102 
H    -1.2802391    2.0396784    0.0093980 
H     1.2166430   -2.1065285    0.0405896 
H     2.5273216   -0.0297984    0.0413112 
H    -1.2479887   -2.0313770    0.0333307 
