11
Compound 015, distorted structure 07
C    -0.7355190   -1.1016053   -0.0361405 
C     0.7112812   -1.2320184    0.0311751 
C     1.3367291   -0.0789027    0.0035265 
C     0.6581387    1.1601270    0.0083033 
C    -0.6305119    1.1366336   -0.0493974 
N    -1.4499732   -0.0842510    0.0810872 
H     1.1475769    2.1043024    0.0781682 
H    -1.2431576    1.9897339   -0.0667167 
H     1.2467363   -2.1469333   -0.0723907 
H     2.5089698    0.0713510    0.0633056 
H    -1.3492535   -2.0866556    0.0521865 
