11
Compound 015, distorted structure 04
C    -0.6703093   -1.1500082   -0.0143825 
C     0.6904205   -1.2033208   -0.0108522 
C     1.4410201   -0.0004640    0.0168617 
C     0.6490563    1.2252975   -0.0051816 
C    -0.7008891    1.1533254    0.0123973 
N    -1.3458403    0.0083710   -0.0158182 
H     1.2234347    2.1795866   -0.0337286 
H    -1.3295160    2.0417099   -0.0438243 
H     1.1946870   -2.1944245   -0.0476752 
H     2.4729444    0.0259919    0.0291154 
H    -1.2853997   -2.0848725    0.0433648 
