11
Compound 015, distorted structure 02
C    -0.6977033   -1.1634598   -0.0028608 
C     0.6646701   -1.2040025    0.0128033 
C     1.4073902   -0.0014865   -0.0198116 
C     0.7103905    1.2213952   -0.0146447 
C    -0.7188891    1.1292906   -0.0149742 
N    -1.3938638   -0.0186321   -0.0145717 
H     1.1892894    2.1410400   -0.0271543 
H    -1.2788262    2.0758461    0.0153302 
H     1.1791533   -2.1463089    0.0233951 
H     2.5020376    0.0132393    0.0081496 
H    -1.3002482   -2.0477981   -0.0021149 
