13
Compound 091, distorted structure 02
C     0.2466334   -1.1974937    0.0054090 
C     1.6173399   -1.2182648   -0.0048839 
C     2.3176326   -0.0035621   -0.0213447 
C     1.5936256    1.2262596    0.0012191 
C     0.2408328    1.1827306    0.0229439 
C    -0.4644817   -0.0271657    0.0016342 
S    -2.2328134    0.0699081   -0.0120637 
H    -0.3022810   -2.1466758    0.0106902 
H     2.1717784   -2.1359141    0.0218866 
H     3.3877206    0.0305927   -0.0081854 
H     2.1388823    2.1295844   -0.0025433 
H    -0.3405507    2.1629759   -0.0056133 
H    -2.4452614   -1.2428520    0.0111922 
