13
Compound 091 optimized with r2SCAN-3c
C     0.2418571   -1.2175299   -0.0000906 
C     1.6321055   -1.2007524   -0.0000241 
C     2.3271901    0.0045812    0.0000452 
C     1.6163333    1.2011551    0.0000163 
C     0.2270864    1.1981467   -0.0000527 
C    -0.4673690   -0.0143972   -0.0000743 
S    -2.2486813    0.0580738   -0.0000060 
H    -0.2859828   -2.1669620   -0.0001652 
H     2.1735729   -2.1424771   -0.0000290 
H     3.4125640    0.0114941    0.0001261 
H     2.1449211    2.1499655    0.0000483 
H    -0.3188805    2.1375769   -0.0000945 
H    -2.4601892   -1.2682555    0.0003432 
