Compound 091, distorted structure 06
 OpenBabel12102416353D

 13 13  0  0  0  0  0  0  0  0999 V2000
    0.2562   -1.2035   -0.0116 C   0  0  0  0  0  0  0  0  0  0  0  0
    1.6629   -1.1808   -0.0213 C   0  0  0  0  0  0  0  0  0  0  0  0
    2.3773    0.0228    0.0530 C   0  0  0  0  0  0  0  0  0  0  0  0
    1.5700    1.1713   -0.0559 C   0  0  0  0  0  0  0  0  0  0  0  0
    0.2117    1.2323   -0.0588 C   0  0  0  0  0  0  0  0  0  0  0  0
   -0.4672   -0.0808    0.0163 C   0  0  0  0  0  0  0  0  0  0  0  0
   -2.3042    0.0734   -0.0485 S   0  0  0  0  0  0  0  0  0  0  0  0
   -0.3079   -2.1671   -0.0284 H   0  0  0  0  0  0  0  0  0  0  0  0
    2.1031   -2.1676    0.0087 H   0  0  0  0  0  0  0  0  0  0  0  0
    3.3942   -0.0020   -0.0618 H   0  0  0  0  0  0  0  0  0  0  0  0
    2.1764    2.2158   -0.0155 H   0  0  0  0  0  0  0  0  0  0  0  0
   -0.2528    2.1126   -0.0105 H   0  0  0  0  0  0  0  0  0  0  0  0
   -2.5220   -1.3017   -0.0047 H   0  0  0  0  0  0  0  0  0  0  0  0
  1  6  1  0  0  0  0
  2  1  2  0  0  0  0
  2  9  1  0  0  0  0
  2  3  1  0  0  0  0
  4 11  1  0  0  0  0
  4  3  2  0  0  0  0
  5  4  1  0  0  0  0
  5 12  1  0  0  0  0
  5  6  2  0  0  0  0
  7 13  1  0  0  0  0
  7  6  1  0  0  0  0
  8  1  1  0  0  0  0
 10  3  1  0  0  0  0
M  END
$$$$
