13
Compound 042, distorted structure 05
C    -1.9971602    0.0784226   -0.0698172 
C    -0.7373161    0.7526902    0.1180756 
C     0.5031496   -0.0468161   -0.0180342 
O     0.4448726   -1.3215308   -0.0209281 
C     1.7460564    0.6285205   -0.0836789 
H     2.5864464   -0.1272238    0.1300663 
H     1.8249306    1.4274145    0.6470748 
H     1.9112726    1.1054989   -1.0465778 
H    -0.6320339    1.6494200   -0.6633676 
H    -0.6536347    1.3170215    1.1316587 
H    -2.9869342    0.7042362   -0.0490665 
H    -2.0449063   -0.7389492    0.6839842 
H    -2.0436570   -0.5534737   -1.0588850 
