13
Compound 042, distorted structure 06
C    -1.9742940    0.0701979   -0.0429490 
C    -0.7929479    0.8409971    0.0764908 
C     0.5450623   -0.1461052   -0.0399920 
O     0.4316708   -1.3081031   -0.1099411 
C     1.7654193    0.6060879   -0.1100917 
H     2.5839111    0.0022821    0.1976424 
H     1.7860870    1.4508470    0.5763285 
H     1.9886411    0.9875471   -1.0281962 
H    -0.6506161    1.5508308   -0.6912159 
H    -0.6154198    1.3028403    1.1029422 
H    -2.9417338    0.6207351   -0.0100102 
H    -2.1339991   -0.8289642    0.6586074 
H    -2.0800515   -0.5080018   -0.9829534 
