13
Compound 042, distorted structure 07
C    -1.9594435    0.0306419   -0.1309948 
C    -0.6885983    0.7999390    0.0151833 
C     0.4399578   -0.1365003    0.0866126 
O     0.5178134   -1.3201400    0.0016522 
C     1.9027898    0.6070628   -0.0640664 
H     2.6931581   -0.0405813    0.2307761 
H     1.9085427    1.4532620    0.6508045 
H     2.0544114    1.0977403   -1.1276797 
H    -0.6361309    1.5771286   -0.6531905 
H    -0.7172087    1.2481643    0.9711673 
H    -2.9782866    0.6944841   -0.0637956 
H    -2.1086593   -0.7031870    0.7744532 
H    -2.0214112   -0.4650558   -1.0302113 
