13
Compound 042, distorted structure 08
C    -1.9385506    0.1341492   -0.1818732 
C    -0.6205586    0.7689947    0.1512758 
C     0.5291118   -0.0565462    0.0130325 
O     0.4241826   -1.2613277   -0.0474962 
C     1.7902044    0.6186833   -0.0572471 
H     2.5523721   -0.1436563    0.3032594 
H     1.7635519    1.5327252    0.7379588 
H     1.8670768    1.1299972   -1.1344288 
H    -0.6524868    1.5961337   -0.6428047 
H    -0.5802348    1.2770364    1.0396147 
H    -2.9551253    0.7198985    0.0710817 
H    -2.0779450   -0.6722070    0.6591511 
H    -1.9781052   -0.4486721   -1.0444117 
