13
Compound 042 optimized with r2SCAN-3c
C    -2.0367564    0.0123004   -0.0623076 
C    -0.7332409    0.7837965    0.0797438 
C     0.5052388   -0.0893605   -0.0024613 
O     0.4370193   -1.3001808   -0.0486007 
C     1.8342875    0.6342640   -0.0412225 
H     2.6459384   -0.0568480    0.1916848 
H     1.8493423    1.4899692    0.6417865 
H     1.9888246    1.0286242   -1.0534868 
H    -0.6423384    1.5749909   -0.6788216 
H    -0.6875585    1.3122927    1.0441682 
H    -2.8957166    0.6847941    0.0186965 
H    -2.1183754   -0.7550208    0.7115144 
H    -2.0831001   -0.4969324   -1.0287981 
