Compound 042, distorted structure 05
 OpenBabel12102416353D

 13 12  0  0  0  0  0  0  0  0999 V2000
   -1.9972    0.0784   -0.0698 C   0  0  0  0  0  0  0  0  0  0  0  0
   -0.7373    0.7527    0.1181 C   0  0  0  0  0  0  0  0  0  0  0  0
    0.5031   -0.0468   -0.0180 C   0  0  0  0  0  0  0  0  0  0  0  0
    0.4449   -1.3215   -0.0209 O   0  0  0  0  0  0  0  0  0  0  0  0
    1.7461    0.6285   -0.0837 C   0  0  0  0  0  0  0  0  0  0  0  0
    2.5864   -0.1272    0.1301 H   0  0  0  0  0  0  0  0  0  0  0  0
    1.8249    1.4274    0.6471 H   0  0  0  0  0  0  0  0  0  0  0  0
    1.9113    1.1055   -1.0466 H   0  0  0  0  0  0  0  0  0  0  0  0
   -0.6320    1.6494   -0.6634 H   0  0  0  0  0  0  0  0  0  0  0  0
   -0.6536    1.3170    1.1317 H   0  0  0  0  0  0  0  0  0  0  0  0
   -2.9869    0.7042   -0.0491 H   0  0  0  0  0  0  0  0  0  0  0  0
   -2.0449   -0.7389    0.6840 H   0  0  0  0  0  0  0  0  0  0  0  0
   -2.0437   -0.5535   -1.0589 H   0  0  0  0  0  0  0  0  0  0  0  0
  1 11  1  0  0  0  0
  1  2  1  0  0  0  0
  1 12  1  0  0  0  0
  2 10  1  0  0  0  0
  3  2  1  0  0  0  0
  4  3  2  0  0  0  0
  5  3  1  0  0  0  0
  5  6  1  0  0  0  0
  5  7  1  0  0  0  0
  8  5  1  0  0  0  0
  9  2  1  0  0  0  0
 13  1  1  0  0  0  0
M  END
$$$$
