Compound 042, distorted structure 08
 OpenBabel12102416353D

 13 12  0  0  0  0  0  0  0  0999 V2000
   -1.9386    0.1341   -0.1819 C   0  0  0  0  0  0  0  0  0  0  0  0
   -0.6206    0.7690    0.1513 C   0  0  0  0  0  0  0  0  0  0  0  0
    0.5291   -0.0565    0.0130 C   0  0  0  0  0  0  0  0  0  0  0  0
    0.4242   -1.2613   -0.0475 O   0  0  0  0  0  0  0  0  0  0  0  0
    1.7902    0.6187   -0.0572 C   0  0  0  0  0  0  0  0  0  0  0  0
    2.5524   -0.1437    0.3033 H   0  0  0  0  0  0  0  0  0  0  0  0
    1.7636    1.5327    0.7380 H   0  0  0  0  0  0  0  0  0  0  0  0
    1.8671    1.1300   -1.1344 H   0  0  0  0  0  0  0  0  0  0  0  0
   -0.6525    1.5961   -0.6428 H   0  0  0  0  0  0  0  0  0  0  0  0
   -0.5802    1.2770    1.0396 H   0  0  0  0  0  0  0  0  0  0  0  0
   -2.9551    0.7199    0.0711 H   0  0  0  0  0  0  0  0  0  0  0  0
   -2.0779   -0.6722    0.6592 H   0  0  0  0  0  0  0  0  0  0  0  0
   -1.9781   -0.4487   -1.0444 H   0  0  0  0  0  0  0  0  0  0  0  0
  1 11  1  0  0  0  0
  1  2  1  0  0  0  0
  1 12  1  0  0  0  0
  2 10  1  0  0  0  0
  3  2  1  0  0  0  0
  4  3  2  0  0  0  0
  5  3  1  0  0  0  0
  5  6  1  0  0  0  0
  5  7  1  0  0  0  0
  8  5  1  0  0  0  0
  9  2  1  0  0  0  0
 13  1  1  0  0  0  0
M  END
$$$$
