16
Compound 052, distorted structure 01
C    -0.4390652   -1.2983943    0.0104618 
C    -1.8003203   -1.0084225   -0.0053840 
C    -2.2601982    0.3141694    0.0022584 
C    -1.3437481    1.3325825    0.0020725 
C     0.0287077    1.0929955    0.0058833 
C     0.4918868   -0.2384903   -0.0099125 
O     1.7914782   -0.6048395    0.0011720 
C     2.7866489    0.4219372    0.0029897 
H     2.6819374    1.0327577    0.9110398 
H     2.6809268    1.0544899   -0.9063872 
H     3.7473369   -0.0880911   -0.0055639 
H    -0.0806027   -2.3069308   -0.0069634 
H    -2.5064737   -1.8545686   -0.0021923 
H    -3.3116999    0.5252449    0.0122525 
H    -1.6834513    2.3658428   -0.0010000 
H     0.7273789    1.9010792    0.0000757 
