16
Compound 052, distorted structure 09
C    -0.5338538   -1.2735237    0.0322553 
C    -1.8798329   -1.1059049    0.0217385 
C    -2.1986065    0.3823150    0.0932681 
C    -1.2814099    1.3046992    0.0402633 
C     0.0670451    1.0692454    0.0828305 
C     0.4910490   -0.3162569   -0.0723588 
O     1.8503171   -0.6812341    0.0428017 
C     2.7728274    0.4013247   -0.0628756 
H     2.6494041    0.9654047    0.8937472 
H     2.6431891    0.9960961   -0.8756412 
H     3.7470652   -0.0760497   -0.0727767 
H    -0.1126700   -2.2454180   -0.0391179 
H    -2.4174359   -1.8711477   -0.0348654 
H    -3.2920313    0.4278536    0.0403844 
H    -1.6710045    2.3828279   -0.0852733 
H     0.7486428    1.8866925   -0.0716631 
