16
Compound 052, distorted structure 02
C    -0.4629034   -1.2754838   -0.0004195 
C    -1.8144101   -1.0325723    0.0122175 
C    -2.2731192    0.3191653    0.0002554 
C    -1.3301720    1.3452978    0.0006186 
C     0.0432680    1.0977152   -0.0172865 
C     0.4939844   -0.2465957    0.0075126 
O     1.7958013   -0.6309366   -0.0206278 
C     2.7811314    0.4011009   -0.0072169 
H     2.6824543    1.0616570    0.9014264 
H     2.6832174    1.0442168   -0.8920056 
H     3.7238169   -0.0975681    0.0041199 
H    -0.0772343   -2.3329400    0.0189962 
H    -2.5145849   -1.8293246    0.0079251 
H    -3.3336718    0.5065175    0.0180668 
H    -1.6818311    2.3509919   -0.0139152 
H     0.7224880    1.9002658    0.0018377 
