Compound 052, distorted structure 09
 OpenBabel12102416353D

 16 16  0  0  0  0  0  0  0  0999 V2000
   -0.5339   -1.2735    0.0323 C   0  0  0  0  0  0  0  0  0  0  0  0
   -1.8798   -1.1059    0.0217 C   0  0  0  0  0  0  0  0  0  0  0  0
   -2.1986    0.3823    0.0933 C   0  0  0  0  0  0  0  0  0  0  0  0
   -1.2814    1.3047    0.0403 C   0  0  0  0  0  0  0  0  0  0  0  0
    0.0670    1.0692    0.0828 C   0  0  0  0  0  0  0  0  0  0  0  0
    0.4910   -0.3163   -0.0724 C   0  0  0  0  0  0  0  0  0  0  0  0
    1.8503   -0.6812    0.0428 O   0  0  0  0  0  0  0  0  0  0  0  0
    2.7728    0.4013   -0.0629 C   0  0  0  0  0  0  0  0  0  0  0  0
    2.6494    0.9654    0.8937 H   0  0  0  0  0  0  0  0  0  0  0  0
    2.6432    0.9961   -0.8756 H   0  0  0  0  0  0  0  0  0  0  0  0
    3.7471   -0.0760   -0.0728 H   0  0  0  0  0  0  0  0  0  0  0  0
   -0.1127   -2.2454   -0.0391 H   0  0  0  0  0  0  0  0  0  0  0  0
   -2.4174   -1.8711   -0.0349 H   0  0  0  0  0  0  0  0  0  0  0  0
   -3.2920    0.4279    0.0404 H   0  0  0  0  0  0  0  0  0  0  0  0
   -1.6710    2.3828   -0.0853 H   0  0  0  0  0  0  0  0  0  0  0  0
    0.7486    1.8867   -0.0717 H   0  0  0  0  0  0  0  0  0  0  0  0
  2  1  1  0  0  0  0
  2  3  2  0  0  0  0
  4  5  2  0  0  0  0
  4  3  1  0  0  0  0
  6  1  2  0  0  0  0
  6  7  1  0  0  0  0
  6  5  1  0  0  0  0
  8  7  1  0  0  0  0
  8  9  1  0  0  0  0
 10  8  1  0  0  0  0
 11  8  1  0  0  0  0
 12  1  1  0  0  0  0
 13  2  1  0  0  0  0
 14  3  1  0  0  0  0
 15  4  1  0  0  0  0
 16  5  1  0  0  0  0
M  END
$$$$
