14
Compound 083, distorted structure 04
O     0.0479602    0.0359913    1.6008785 
P    -0.0273677    0.0378143    0.1385008 
C     0.4542162    1.5692832   -0.5699300 
C    -1.5746719   -0.3884869   -0.6237359 
C     1.2065847   -1.1503949   -0.6302691 
H    -1.5981615   -0.3452705   -1.7394256 
H    -2.3286193    0.3609157   -0.2870898 
H    -1.9184652   -1.3715546   -0.3079412 
H     0.8932580   -2.2589189   -0.2327287 
H     2.2196448   -0.9317814   -0.2468122 
H     1.1621172   -1.1812960   -1.6897352 
H     1.4759098    1.8750597   -0.3184203 
H    -0.2709842    2.4044628   -0.2418570 
H     0.3991160    1.5906386   -1.6907571 
