14
Compound 083, distorted structure 05
O    -0.0172899   -0.0611123    1.6883118 
P     0.0017021    0.0346808    0.0953506 
C     0.4642494    1.5820197   -0.6331692 
C    -1.6390336   -0.3812833   -0.6019440 
C     1.1441584   -1.2009424   -0.5860029 
H    -1.5788540   -0.4359139   -1.7202972 
H    -2.3527192    0.2851463   -0.3089780 
H    -1.8834997   -1.4127192   -0.2237189 
H     0.8465359   -2.2461874   -0.3281462 
H     2.1138660   -0.9298991   -0.2596168 
H     1.1853953   -1.1505871   -1.7032291 
H     1.4747711    1.8844328   -0.2837806 
H    -0.2922367    2.3949843   -0.2917894 
H     0.4299551    1.5817058   -1.7036209 
