Compound 001, distorted structure 04
 OpenBabel11072411423D

 11 10  0  0  0  0  0  0  0  0999 V2000
    2.4078    0.0372    0.0274 C   0  0  0  0  0  0  0  0  0  0  0  0
    0.9697   -0.3622   -0.0254 C   0  0  0  0  0  0  0  0  0  0  0  0
    2.9359   -0.4054    0.8870 H   0  0  0  0  0  0  0  0  0  0  0  0
    2.5679    1.0811    0.0152 H   0  0  0  0  0  0  0  0  0  0  0  0
    2.9265   -0.4449   -0.9242 H   0  0  0  0  0  0  0  0  0  0  0  0
   -0.0067    0.5065    0.0018 C   0  0  0  0  0  0  0  0  0  0  0  0
    0.7528   -1.4987   -0.0079 H   0  0  0  0  0  0  0  0  0  0  0  0
   -1.3772    0.1495   -0.0100 C   0  0  0  0  0  0  0  0  0  0  0  0
    0.2102    1.5549   -0.0191 H   0  0  0  0  0  0  0  0  0  0  0  0
   -2.5840   -0.2232    0.0410 C   0  0  0  0  0  0  0  0  0  0  0  0
   -3.5931   -0.4950   -0.0398 H   0  0  0  0  0  0  0  0  0  0  0  0
  1  3  1  0  0  0  0
  2  7  1  0  0  0  0
  2  6  2  0  0  0  0
  2  1  1  0  0  0  0
  4  1  1  0  0  0  0
  5  1  1  0  0  0  0
  8  6  1  0  0  0  0
  8 10  3  0  0  0  0
  9  6  1  0  0  0  0
 11 10  1  0  0  0  0
M  END
$$$$
