Compound 001, distorted structure 01
 OpenBabel11072411423D

 11 10  0  0  0  0  0  0  0  0999 V2000
    2.4508   -0.0156   -0.0114 C   0  0  0  0  0  0  0  0  0  0  0  0
    1.0163   -0.3977    0.0002 C   0  0  0  0  0  0  0  0  0  0  0  0
    2.9618   -0.4078    0.8585 H   0  0  0  0  0  0  0  0  0  0  0  0
    2.5522    1.0677    0.0001 H   0  0  0  0  0  0  0  0  0  0  0  0
    2.9342   -0.4304   -0.8984 H   0  0  0  0  0  0  0  0  0  0  0  0
   -0.0081    0.4624   -0.0050 C   0  0  0  0  0  0  0  0  0  0  0  0
    0.7496   -1.4452    0.0194 H   0  0  0  0  0  0  0  0  0  0  0  0
   -1.3709    0.0844   -0.0236 C   0  0  0  0  0  0  0  0  0  0  0  0
    0.1887    1.5678   -0.0071 H   0  0  0  0  0  0  0  0  0  0  0  0
   -2.5347   -0.1603    0.0072 C   0  0  0  0  0  0  0  0  0  0  0  0
   -3.5813   -0.4337    0.0154 H   0  0  0  0  0  0  0  0  0  0  0  0
  1  4  1  0  0  0  0
  1  2  1  0  0  0  0
  1  3  1  0  0  0  0
  2  7  1  0  0  0  0
  5  1  1  0  0  0  0
  6  2  2  0  0  0  0
  8  6  1  0  0  0  0
  8 10  3  0  0  0  0
  9  6  1  0  0  0  0
 10 11  1  0  0  0  0
M  END
$$$$
