Compound 001, distorted structure 05
 OpenBabel11072411423D

 11 10  0  0  0  0  0  0  0  0999 V2000
    2.4565   -0.0724   -0.0011 C   0  0  0  0  0  0  0  0  0  0  0  0
    0.9580   -0.3821    0.0272 C   0  0  0  0  0  0  0  0  0  0  0  0
    2.9750   -0.3299    0.9287 H   0  0  0  0  0  0  0  0  0  0  0  0
    2.4692    1.0106    0.0126 H   0  0  0  0  0  0  0  0  0  0  0  0
    2.9333   -0.4718   -0.8595 H   0  0  0  0  0  0  0  0  0  0  0  0
   -0.0202    0.5109    0.0077 C   0  0  0  0  0  0  0  0  0  0  0  0
    0.7078   -1.5068   -0.0668 H   0  0  0  0  0  0  0  0  0  0  0  0
   -1.4457    0.1499   -0.0045 C   0  0  0  0  0  0  0  0  0  0  0  0
    0.2098    1.4547   -0.0864 H   0  0  0  0  0  0  0  0  0  0  0  0
   -2.5729   -0.1083    0.0647 C   0  0  0  0  0  0  0  0  0  0  0  0
   -3.5342   -0.4375   -0.0455 H   0  0  0  0  0  0  0  0  0  0  0  0
  1  4  1  0  0  0  0
  1  2  1  0  0  0  0
  1  3  1  0  0  0  0
  5  1  1  0  0  0  0
  6  2  2  0  0  0  0
  7  2  1  0  0  0  0
  8  6  1  0  0  0  0
  8 10  3  0  0  0  0
  9  6  1  0  0  0  0
 11 10  1  0  0  0  0
M  END
$$$$
