Compound 001 optimized with r2SCAN-3c
 OpenBabel11072411423D

 11 10  0  0  0  0  0  0  0  0999 V2000
    2.4395   -0.0064    0.0005 C   0  0  0  0  0  0  0  0  0  0  0  0
    1.0009   -0.3955    0.0002 C   0  0  0  0  0  0  0  0  0  0  0  0
    2.9534   -0.4142    0.8800 H   0  0  0  0  0  0  0  0  0  0  0  0
    2.5648    1.0801   -0.0003 H   0  0  0  0  0  0  0  0  0  0  0  0
    2.9546   -0.4157   -0.8777 H   0  0  0  0  0  0  0  0  0  0  0  0
   -0.0180    0.4771   -0.0013 C   0  0  0  0  0  0  0  0  0  0  0  0
    0.7721   -1.4605    0.0012 H   0  0  0  0  0  0  0  0  0  0  0  0
   -1.3808    0.1020   -0.0008 C   0  0  0  0  0  0  0  0  0  0  0  0
    0.1900    1.5475   -0.0031 H   0  0  0  0  0  0  0  0  0  0  0  0
   -2.5549   -0.1843    0.0006 C   0  0  0  0  0  0  0  0  0  0  0  0
   -3.5848   -0.4475    0.0010 H   0  0  0  0  0  0  0  0  0  0  0  0
  1  3  1  0  0  0  0
  2  1  1  0  0  0  0
  2  7  1  0  0  0  0
  4  1  1  0  0  0  0
  5  1  1  0  0  0  0
  6  8  1  0  0  0  0
  6  2  2  0  0  0  0
  8 10  3  0  0  0  0
  9  6  1  0  0  0  0
 10 11  1  0  0  0  0
M  END
$$$$
