Compound 002, distorted structure 02
 OpenBabel11072411423D

 12 12  0  0  0  0  0  0  0  0999 V2000
    0.6816   -0.8347   -0.1569 C   0  0  0  0  0  0  0  0  0  0  0  0
   -0.8299   -0.6747    0.1612 C   0  0  0  0  0  0  0  0  0  0  0  0
   -0.6466    0.8353   -0.1592 C   0  0  0  0  0  0  0  0  0  0  0  0
    0.8391    0.6842    0.1587 C   0  0  0  0  0  0  0  0  0  0  0  0
    0.8584   -1.1007   -1.1734 H   0  0  0  0  0  0  0  0  0  0  0  0
    1.2342   -1.5792    0.5203 H   0  0  0  0  0  0  0  0  0  0  0  0
   -1.0892   -0.8705    1.2032 H   0  0  0  0  0  0  0  0  0  0  0  0
   -1.5885   -1.1923   -0.4893 H   0  0  0  0  0  0  0  0  0  0  0  0
   -1.2130    1.5694    0.4724 H   0  0  0  0  0  0  0  0  0  0  0  0
   -0.8640    1.1209   -1.1630 H   0  0  0  0  0  0  0  0  0  0  0  0
    1.1030    0.8322    1.1747 H   0  0  0  0  0  0  0  0  0  0  0  0
    1.5650    1.2102   -0.4732 H   0  0  0  0  0  0  0  0  0  0  0  0
  1  4  1  0  0  0  0
  1  2  1  0  0  0  0
  1  6  1  0  0  0  0
  2  7  1  0  0  0  0
  3  4  1  0  0  0  0
  3  2  1  0  0  0  0
  3  9  1  0  0  0  0
  4 11  1  0  0  0  0
  5  1  1  0  0  0  0
  8  2  1  0  0  0  0
 10  3  1  0  0  0  0
 12  4  1  0  0  0  0
M  END
$$$$
