Compound 002 optimized with r2SCAN-3c
 OpenBabel11072411423D

 12 12  0  0  0  0  0  0  0  0999 V2000
    0.6608   -0.8541   -0.1350 C   0  0  0  0  0  0  0  0  0  0  0  0
   -0.8541   -0.6608    0.1350 C   0  0  0  0  0  0  0  0  0  0  0  0
   -0.6608    0.8541   -0.1350 C   0  0  0  0  0  0  0  0  0  0  0  0
    0.8541    0.6608    0.1350 C   0  0  0  0  0  0  0  0  0  0  0  0
    0.8481   -1.0962   -1.1863 H   0  0  0  0  0  0  0  0  0  0  0  0
    1.2087   -1.5623    0.4939 H   0  0  0  0  0  0  0  0  0  0  0  0
   -1.0962   -0.8481    1.1864 H   0  0  0  0  0  0  0  0  0  0  0  0
   -1.5622   -1.2087   -0.4939 H   0  0  0  0  0  0  0  0  0  0  0  0
   -1.2087    1.5622    0.4940 H   0  0  0  0  0  0  0  0  0  0  0  0
   -0.8481    1.0962   -1.1863 H   0  0  0  0  0  0  0  0  0  0  0  0
    1.0962    0.8481    1.1864 H   0  0  0  0  0  0  0  0  0  0  0  0
    1.5622    1.2087   -0.4939 H   0  0  0  0  0  0  0  0  0  0  0  0
  1  2  1  0  0  0  0
  1  4  1  0  0  0  0
  1  6  1  0  0  0  0
  2  7  1  0  0  0  0
  3  2  1  0  0  0  0
  3  4  1  0  0  0  0
  3  9  1  0  0  0  0
  4 11  1  0  0  0  0
  5  1  1  0  0  0  0
  8  2  1  0  0  0  0
 10  3  1  0  0  0  0
 12  4  1  0  0  0  0
M  END
$$$$
