Compound 002, distorted structure 07
 OpenBabel11072411423D

 12 12  0  0  0  0  0  0  0  0999 V2000
    0.6644   -0.9223   -0.0829 C   0  0  0  0  0  0  0  0  0  0  0  0
   -0.9119   -0.7201    0.1247 C   0  0  0  0  0  0  0  0  0  0  0  0
   -0.5793    0.8011   -0.0554 C   0  0  0  0  0  0  0  0  0  0  0  0
    0.7755    0.5790    0.0799 C   0  0  0  0  0  0  0  0  0  0  0  0
    0.8148   -1.1008   -1.1603 H   0  0  0  0  0  0  0  0  0  0  0  0
    1.2593   -1.6224    0.4710 H   0  0  0  0  0  0  0  0  0  0  0  0
   -1.0367   -0.8485    1.2075 H   0  0  0  0  0  0  0  0  0  0  0  0
   -1.5395   -1.2138   -0.4848 H   0  0  0  0  0  0  0  0  0  0  0  0
   -1.2564    1.5704    0.4524 H   0  0  0  0  0  0  0  0  0  0  0  0
   -0.8609    1.0962   -1.1759 H   0  0  0  0  0  0  0  0  0  0  0  0
    1.1033    0.8120    1.1418 H   0  0  0  0  0  0  0  0  0  0  0  0
    1.5602    1.1347   -0.5372 H   0  0  0  0  0  0  0  0  0  0  0  0
  1  4  1  0  0  0  0
  1  2  1  0  0  0  0
  1  6  1  0  0  0  0
  2  7  1  0  0  0  0
  3  4  1  0  0  0  0
  3  2  1  0  0  0  0
  3  9  1  0  0  0  0
  4 11  1  0  0  0  0
  5  1  1  0  0  0  0
  8  2  1  0  0  0  0
 10  3  1  0  0  0  0
 12  4  1  0  0  0  0
M  END
$$$$
