Compound 003, distorted structure 05
 OpenBabel11072411413D

 12 12  0  0  0  0  0  0  0  0999 V2000
   -2.5270   -0.0434   -0.0471 H   0  0  0  0  0  0  0  0  0  0  0  0
   -1.3648    0.0030   -0.0265 C   0  0  0  0  0  0  0  0  0  0  0  0
   -0.7083    1.2179   -0.0099 C   0  0  0  0  0  0  0  0  0  0  0  0
    0.7199    1.2051    0.0156 C   0  0  0  0  0  0  0  0  0  0  0  0
    1.3930    0.0768    0.0065 C   0  0  0  0  0  0  0  0  0  0  0  0
    0.6690   -1.1959    0.0163 C   0  0  0  0  0  0  0  0  0  0  0  0
   -0.6888   -1.2250   -0.0321 C   0  0  0  0  0  0  0  0  0  0  0  0
   -1.2078   -2.2021    0.0467 H   0  0  0  0  0  0  0  0  0  0  0  0
    1.2528   -2.1373    0.0121 H   0  0  0  0  0  0  0  0  0  0  0  0
    2.4798    0.0794    0.0079 H   0  0  0  0  0  0  0  0  0  0  0  0
    1.2414    2.1824   -0.0329 H   0  0  0  0  0  0  0  0  0  0  0  0
   -1.2525    2.1174   -0.0285 H   0  0  0  0  0  0  0  0  0  0  0  0
  1  2  1  0  0  0  0
  2  3  1  0  0  0  0
  3  4  2  0  0  0  0
  5 10  1  0  0  0  0
  5  4  1  0  0  0  0
  5  6  2  0  0  0  0
  7  2  2  0  0  0  0
  7  6  1  0  0  0  0
  7  8  1  0  0  0  0
  9  6  1  0  0  0  0
 11  4  1  0  0  0  0
 12  3  1  0  0  0  0
M  END
$$$$
