Compound 003, distorted structure 08
 OpenBabel11072411413D

 12 12  0  0  0  0  0  0  0  0999 V2000
   -2.4717   -0.0128    0.0269 H   0  0  0  0  0  0  0  0  0  0  0  0
   -1.3840   -0.0728   -0.0329 C   0  0  0  0  0  0  0  0  0  0  0  0
   -0.7824    1.1148    0.0137 C   0  0  0  0  0  0  0  0  0  0  0  0
    0.7237    1.1861   -0.0510 C   0  0  0  0  0  0  0  0  0  0  0  0
    1.4550    0.0651   -0.0352 C   0  0  0  0  0  0  0  0  0  0  0  0
    0.7544   -1.2251    0.0774 C   0  0  0  0  0  0  0  0  0  0  0  0
   -0.7299   -1.2925   -0.0662 C   0  0  0  0  0  0  0  0  0  0  0  0
   -1.2472   -2.1633   -0.0415 H   0  0  0  0  0  0  0  0  0  0  0  0
    1.2772   -2.1183    0.0033 H   0  0  0  0  0  0  0  0  0  0  0  0
    2.3997    0.0884    0.0684 H   0  0  0  0  0  0  0  0  0  0  0  0
    1.1322    2.2366   -0.0154 H   0  0  0  0  0  0  0  0  0  0  0  0
   -1.2993    2.1248    0.0420 H   0  0  0  0  0  0  0  0  0  0  0  0
  2  3  1  0  0  0  0
  2  1  1  0  0  0  0
  3 12  1  0  0  0  0
  4  5  1  0  0  0  0
  4 11  1  0  0  0  0
  4  3  2  0  0  0  0
  5 10  1  0  0  0  0
  5  6  2  0  0  0  0
  7  8  1  0  0  0  0
  7  2  2  0  0  0  0
  7  6  1  0  0  0  0
  9  6  1  0  0  0  0
M  END
$$$$
