Compound 003, distorted structure 09
 OpenBabel11072411413D

 12 12  0  0  0  0  0  0  0  0999 V2000
   -2.3873   -0.1471   -0.0237 H   0  0  0  0  0  0  0  0  0  0  0  0
   -1.3737   -0.0932    0.0082 C   0  0  0  0  0  0  0  0  0  0  0  0
   -0.7379    1.1586    0.0676 C   0  0  0  0  0  0  0  0  0  0  0  0
    0.5758    1.2726   -0.0585 C   0  0  0  0  0  0  0  0  0  0  0  0
    1.4221   -0.0484   -0.0315 C   0  0  0  0  0  0  0  0  0  0  0  0
    0.6426   -1.1418    0.0411 C   0  0  0  0  0  0  0  0  0  0  0  0
   -0.7545   -1.2535    0.0240 C   0  0  0  0  0  0  0  0  0  0  0  0
   -1.1621   -2.1667   -0.0051 H   0  0  0  0  0  0  0  0  0  0  0  0
    1.3631   -2.1236   -0.0311 H   0  0  0  0  0  0  0  0  0  0  0  0
    2.4662    0.1380    0.0845 H   0  0  0  0  0  0  0  0  0  0  0  0
    1.1706    2.1144   -0.1026 H   0  0  0  0  0  0  0  0  0  0  0  0
   -1.3734    2.1070    0.0492 H   0  0  0  0  0  0  0  0  0  0  0  0
  1  2  1  0  0  0  0
  2  7  2  0  0  0  0
  2  3  1  0  0  0  0
  4  5  1  0  0  0  0
  4  3  2  0  0  0  0
  5  6  2  0  0  0  0
  5 10  1  0  0  0  0
  7  6  1  0  0  0  0
  8  7  1  0  0  0  0
  9  6  1  0  0  0  0
 11  4  1  0  0  0  0
 12  3  1  0  0  0  0
M  END
$$$$
