Compound 004, distorted structure 06
 OpenBabel11072411403D

 13 13  0  0  0  0  0  0  0  0999 V2000
   -0.0089    1.2682    0.1839 C   0  0  0  0  0  0  0  0  0  0  0  0
   -1.2877    0.3872   -0.1044 C   0  0  0  0  0  0  0  0  0  0  0  0
   -0.6153   -1.0858    0.0223 C   0  0  0  0  0  0  0  0  0  0  0  0
    0.5974   -1.0038    0.0392 C   0  0  0  0  0  0  0  0  0  0  0  0
    1.2037    0.3286   -0.0940 C   0  0  0  0  0  0  0  0  0  0  0  0
   -0.0009    1.5997    1.1527 H   0  0  0  0  0  0  0  0  0  0  0  0
    0.0180    2.1596   -0.4926 H   0  0  0  0  0  0  0  0  0  0  0  0
   -1.6852    0.4466   -1.1861 H   0  0  0  0  0  0  0  0  0  0  0  0
   -2.1264    0.5585    0.6225 H   0  0  0  0  0  0  0  0  0  0  0  0
   -1.2653   -1.9380    0.1067 H   0  0  0  0  0  0  0  0  0  0  0  0
    1.2386   -1.9035    0.1983 H   0  0  0  0  0  0  0  0  0  0  0  0
    1.6446    0.4363   -1.1499 H   0  0  0  0  0  0  0  0  0  0  0  0
    1.9849    0.5953    0.5952 H   0  0  0  0  0  0  0  0  0  0  0  0
  1  6  1  0  0  0  0
  2  3  1  0  0  0  0
  2  1  1  0  0  0  0
  2  9  1  0  0  0  0
  3  4  2  0  0  0  0
  3 10  1  0  0  0  0
  4 11  1  0  0  0  0
  5  4  1  0  0  0  0
  5  1  1  0  0  0  0
  5 13  1  0  0  0  0
  7  1  1  0  0  0  0
  8  2  1  0  0  0  0
 12  5  1  0  0  0  0
M  END
$$$$
