Compound 004, distorted structure 03
 OpenBabel11072411403D

 13 13  0  0  0  0  0  0  0  0999 V2000
   -0.0350    1.2604    0.1610 C   0  0  0  0  0  0  0  0  0  0  0  0
   -1.2531    0.3540   -0.1374 C   0  0  0  0  0  0  0  0  0  0  0  0
   -0.6707   -1.0659    0.0609 C   0  0  0  0  0  0  0  0  0  0  0  0
    0.6629   -1.0515    0.0577 C   0  0  0  0  0  0  0  0  0  0  0  0
    1.2152    0.3219   -0.1283 C   0  0  0  0  0  0  0  0  0  0  0  0
    0.0357    1.5689    1.1478 H   0  0  0  0  0  0  0  0  0  0  0  0
   -0.0288    2.1328   -0.4565 H   0  0  0  0  0  0  0  0  0  0  0  0
   -1.6024    0.4518   -1.0975 H   0  0  0  0  0  0  0  0  0  0  0  0
   -2.0590    0.5595    0.5900 H   0  0  0  0  0  0  0  0  0  0  0  0
   -1.2552   -1.9640    0.1493 H   0  0  0  0  0  0  0  0  0  0  0  0
    1.3291   -1.9258    0.1007 H   0  0  0  0  0  0  0  0  0  0  0  0
    1.6115    0.4599   -1.1487 H   0  0  0  0  0  0  0  0  0  0  0  0
    2.0507    0.5357    0.5470 H   0  0  0  0  0  0  0  0  0  0  0  0
  1  6  1  0  0  0  0
  2  3  1  0  0  0  0
  2  1  1  0  0  0  0
  2  9  1  0  0  0  0
  3 10  1  0  0  0  0
  4  3  2  0  0  0  0
  4 11  1  0  0  0  0
  5  4  1  0  0  0  0
  5  1  1  0  0  0  0
  5 13  1  0  0  0  0
  7  1  1  0  0  0  0
  8  2  1  0  0  0  0
 12  5  1  0  0  0  0
M  END
$$$$
