Compound 005 optimized with r2SCAN-3c
 OpenBabel11072411403D

 13 12  0  0  0  0  0  0  0  0999 V2000
    1.2467   -0.3841   -0.3852 C   0  0  0  0  0  0  0  0  0  0  0  0
   -0.0000   -0.3891    0.0001 C   0  0  0  0  0  0  0  0  0  0  0  0
   -1.2467   -0.3836    0.3855 C   0  0  0  0  0  0  0  0  0  0  0  0
    1.5440   -1.0628   -1.1868 H   0  0  0  0  0  0  0  0  0  0  0  0
    2.3235    0.4917    0.1992 C   0  0  0  0  0  0  0  0  0  0  0  0
   -1.5441   -1.0616    1.1876 H   0  0  0  0  0  0  0  0  0  0  0  0
   -2.3235    0.4919   -0.1994 C   0  0  0  0  0  0  0  0  0  0  0  0
    1.9243    1.1306    0.9901 H   0  0  0  0  0  0  0  0  0  0  0  0
    2.7667    1.1296   -0.5745 H   0  0  0  0  0  0  0  0  0  0  0  0
    3.1328   -0.1177    0.6185 H   0  0  0  0  0  0  0  0  0  0  0  0
   -3.1331   -0.1176   -0.6177 H   0  0  0  0  0  0  0  0  0  0  0  0
   -1.9244    1.1298   -0.9912 H   0  0  0  0  0  0  0  0  0  0  0  0
   -2.7662    1.1309    0.5738 H   0  0  0  0  0  0  0  0  0  0  0  0
  1  2  2  0  0  0  0
  1  5  1  0  0  0  0
  2  3  2  0  0  0  0
  3  6  1  0  0  0  0
  4  1  1  0  0  0  0
  5 10  1  0  0  0  0
  5  8  1  0  0  0  0
  7  3  1  0  0  0  0
  7 13  1  0  0  0  0
  9  5  1  0  0  0  0
 11  7  1  0  0  0  0
 12  7  1  0  0  0  0
M  END
$$$$
