Compound 006, distorted structure 07
 OpenBabel11072411413D

 14 15  0  0  1  0  0  0  0  0999 V2000
   -0.7200    0.7261    0.4072 C   0  0  1  0  0  0  0  0  0  0  0  0
   -0.7085   -0.7806    0.3761 C   0  0  2  0  0  0  0  0  0  0  0  0
    0.7352   -1.1355   -0.0177 C   0  0  0  0  0  0  0  0  0  0  0  0
    1.4157    0.1457   -0.1742 C   0  0  0  0  0  0  0  0  0  0  0  0
    0.7686   -1.8215   -0.8964 H   0  0  0  0  0  0  0  0  0  0  0  0
    1.2337   -1.7275    0.9150 H   0  0  0  0  0  0  0  0  0  0  0  0
    0.7161    1.1232    0.0372 C   0  0  0  0  0  0  0  0  0  0  0  0
   -1.5055   -0.0526   -0.6870 C   0  0  0  0  0  0  0  0  0  0  0  0
   -1.2668    1.3785    1.1715 H   0  0  0  0  0  0  0  0  0  0  0  0
   -1.0104    0.1108   -1.6588 H   0  0  0  0  0  0  0  0  0  0  0  0
   -2.5241   -0.0641   -0.5325 H   0  0  0  0  0  0  0  0  0  0  0  0
   -1.2069   -1.3976    1.1453 H   0  0  0  0  0  0  0  0  0  0  0  0
    2.4653    0.1136   -0.5763 H   0  0  0  0  0  0  0  0  0  0  0  0
    1.0368    2.1763   -0.1006 H   0  0  0  0  0  0  0  0  0  0  0  0
  1  9  1  1  0  0  0
  2  1  1  0  0  0  0
  2 12  1  1  0  0  0
  3  2  1  0  0  0  0
  3  6  1  0  0  0  0
  4  3  1  0  0  0  0
  4  7  2  0  0  0  0
  5  3  1  0  0  0  0
  7  1  1  0  0  0  0
  8 11  1  0  0  0  0
  8  2  1  0  0  0  0
  8  1  1  0  0  0  0
 10  8  1  0  0  0  0
 13  4  1  0  0  0  0
 14  7  1  0  0  0  0
M  END
$$$$
