Compound 006, distorted structure 08
 OpenBabel11072411413D

 14 15  0  0  1  0  0  0  0  0999 V2000
   -0.7378    0.7594    0.3631 C   0  0  1  0  0  0  0  0  0  0  0  0
   -0.7461   -0.8321    0.4083 C   0  0  2  0  0  0  0  0  0  0  0  0
    0.6847   -1.1892    0.1052 C   0  0  0  0  0  0  0  0  0  0  0  0
    1.4134    0.0638   -0.2006 C   0  0  0  0  0  0  0  0  0  0  0  0
    0.7725   -1.9042   -0.8334 H   0  0  0  0  0  0  0  0  0  0  0  0
    1.1522   -1.7437    0.7947 H   0  0  0  0  0  0  0  0  0  0  0  0
    0.7421    1.1277    0.1075 C   0  0  0  0  0  0  0  0  0  0  0  0
   -1.3973   -0.0325   -0.6500 C   0  0  0  0  0  0  0  0  0  0  0  0
   -1.3020    1.2983    1.1869 H   0  0  0  0  0  0  0  0  0  0  0  0
   -1.1406    0.0669   -1.6282 H   0  0  0  0  0  0  0  0  0  0  0  0
   -2.5362    0.0500   -0.5344 H   0  0  0  0  0  0  0  0  0  0  0  0
   -1.1989   -1.2830    1.1011 H   0  0  0  0  0  0  0  0  0  0  0  0
    2.5343    0.2344   -0.5992 H   0  0  0  0  0  0  0  0  0  0  0  0
    0.9961    2.1379   -0.0512 H   0  0  0  0  0  0  0  0  0  0  0  0
  1  2  1  0  0  0  0
  1  9  1  1  0  0  0
  2 12  1  1  0  0  0
  3  2  1  0  0  0  0
  3  6  1  0  0  0  0
  4  3  1  0  0  0  0
  4  7  2  0  0  0  0
  5  3  1  0  0  0  0
  7  1  1  0  0  0  0
  8 11  1  0  0  0  0
  8  1  1  0  0  0  0
  8  2  1  0  0  0  0
 10  8  1  0  0  0  0
 13  4  1  0  0  0  0
 14  7  1  0  0  0  0
M  END
$$$$
