Compound 007, distorted structure 02
 OpenBabel11072411413D

 15 14  0  0  0  0  0  0  0  0999 V2000
    2.1187    0.1098    0.0117 C   0  0  0  0  0  0  0  0  0  0  0  0
    0.7361    0.6954   -0.0051 C   0  0  0  0  0  0  0  0  0  0  0  0
   -0.4588    0.0223    0.0069 C   0  0  0  0  0  0  0  0  0  0  0  0
   -0.6136   -1.4819    0.0093 C   0  0  0  0  0  0  0  0  0  0  0  0
   -1.7409    0.7546   -0.0090 C   0  0  0  0  0  0  0  0  0  0  0  0
    2.6554    0.4480   -0.8941 H   0  0  0  0  0  0  0  0  0  0  0  0
    2.1204   -0.9965   -0.0162 H   0  0  0  0  0  0  0  0  0  0  0  0
    2.6533    0.4339    0.8885 H   0  0  0  0  0  0  0  0  0  0  0  0
    0.6673    1.7561    0.0166 H   0  0  0  0  0  0  0  0  0  0  0  0
    0.3602   -2.0111   -0.0242 H   0  0  0  0  0  0  0  0  0  0  0  0
   -1.1802   -1.7938   -0.8622 H   0  0  0  0  0  0  0  0  0  0  0  0
   -1.1317   -1.8040    0.8771 H   0  0  0  0  0  0  0  0  0  0  0  0
   -2.3463    0.5236   -0.8729 H   0  0  0  0  0  0  0  0  0  0  0  0
   -1.6190    1.8556    0.0273 H   0  0  0  0  0  0  0  0  0  0  0  0
   -2.3397    0.5078    0.9009 H   0  0  0  0  0  0  0  0  0  0  0  0
  1  8  1  0  0  0  0
  2  3  2  0  0  0  0
  2  1  1  0  0  0  0
  2  9  1  0  0  0  0
  3  4  1  0  0  0  0
  4 12  1  0  0  0  0
  5  3  1  0  0  0  0
  5 14  1  0  0  0  0
  5 15  1  0  0  0  0
  6  1  1  0  0  0  0
  7  1  1  0  0  0  0
 10  4  1  0  0  0  0
 11  4  1  0  0  0  0
 13  5  1  0  0  0  0
M  END
$$$$
