Compound 007 optimized with r2SCAN-3c
 OpenBabel11072411413D

 15 14  0  0  0  0  0  0  0  0999 V2000
    2.1019    0.1058   -0.0055 C   0  0  0  0  0  0  0  0  0  0  0  0
    0.7182    0.6776   -0.0018 C   0  0  0  0  0  0  0  0  0  0  0  0
   -0.4484    0.0228    0.0001 C   0  0  0  0  0  0  0  0  0  0  0  0
   -0.5978   -1.4728   -0.0009 C   0  0  0  0  0  0  0  0  0  0  0  0
   -1.7541    0.7714    0.0084 C   0  0  0  0  0  0  0  0  0  0  0  0
    2.6603    0.4474   -0.8862 H   0  0  0  0  0  0  0  0  0  0  0  0
    2.1172   -0.9859   -0.0042 H   0  0  0  0  0  0  0  0  0  0  0  0
    2.6646    0.4489    0.8719 H   0  0  0  0  0  0  0  0  0  0  0  0
    0.6738    1.7678    0.0013 H   0  0  0  0  0  0  0  0  0  0  0  0
    0.3537   -2.0052   -0.0336 H   0  0  0  0  0  0  0  0  0  0  0  0
   -1.1971   -1.7948   -0.8624 H   0  0  0  0  0  0  0  0  0  0  0  0
   -1.1404   -1.8019    0.8951 H   0  0  0  0  0  0  0  0  0  0  0  0
   -2.3554    0.5173   -0.8745 H   0  0  0  0  0  0  0  0  0  0  0  0
   -1.6029    1.8541    0.0204 H   0  0  0  0  0  0  0  0  0  0  0  0
   -2.3556    0.4978    0.8853 H   0  0  0  0  0  0  0  0  0  0  0  0
  1  7  1  0  0  0  0
  1  2  1  0  0  0  0
  1  8  1  0  0  0  0
  2  3  2  0  0  0  0
  2  9  1  0  0  0  0
  3  5  1  0  0  0  0
  4  3  1  0  0  0  0
  4 12  1  0  0  0  0
  5 14  1  0  0  0  0
  5 15  1  0  0  0  0
  6  1  1  0  0  0  0
 10  4  1  0  0  0  0
 11  4  1  0  0  0  0
 13  5  1  0  0  0  0
M  END
$$$$
