Compound 008, distorted structure 02
 OpenBabel11072411413D

 15 16  0  0  1  0  0  0  0  0999 V2000
   -1.2434   -0.6535    0.5012 C   0  0  0  0  0  0  0  0  0  0  0  0
   -1.2341    0.6916    0.5150 C   0  0  0  0  0  0  0  0  0  0  0  0
   -0.0240    1.1006   -0.2838 C   0  0  2  0  0  0  0  0  0  0  0  0
    0.0218   -0.0039   -1.3774 C   0  0  0  0  0  0  0  0  0  0  0  0
   -0.0176   -1.1260   -0.2841 C   0  0  1  0  0  0  0  0  0  0  0  0
    0.9212    0.0050   -1.9716 H   0  0  0  0  0  0  0  0  0  0  0  0
   -0.8933   -0.0134   -1.9757 H   0  0  0  0  0  0  0  0  0  0  0  0
   -1.9155   -1.3574    1.0322 H   0  0  0  0  0  0  0  0  0  0  0  0
   -1.9442    1.3424    1.0277 H   0  0  0  0  0  0  0  0  0  0  0  0
    1.2188    0.6633    0.4808 C   0  0  0  0  0  0  0  0  0  0  0  0
   -0.0226    2.1521   -0.6089 H   0  0  0  0  0  0  0  0  0  0  0  0
    1.2159   -0.6520    0.4865 C   0  0  0  0  0  0  0  0  0  0  0  0
   -0.0231   -2.1755   -0.6305 H   0  0  0  0  0  0  0  0  0  0  0  0
    1.9190   -1.3490    1.0187 H   0  0  0  0  0  0  0  0  0  0  0  0
    1.9447    1.3105    1.0355 H   0  0  0  0  0  0  0  0  0  0  0  0
  1  2  2  0  0  0  0
  1  8  1  0  0  0  0
  2  9  1  0  0  0  0
  3 11  1  6  0  0  0
  3 10  1  0  0  0  0
  3  2  1  0  0  0  0
  4  5  1  0  0  0  0
  4  3  1  0  0  0  0
  5 13  1  6  0  0  0
  5 12  1  0  0  0  0
  5  1  1  0  0  0  0
  6  4  1  0  0  0  0
  7  4  1  0  0  0  0
 10 12  2  0  0  0  0
 10 15  1  0  0  0  0
 12 14  1  0  0  0  0
M  END
$$$$
