Compound 008 optimized with r2SCAN-3c
 OpenBabel11072411413D

 15 16  0  0  1  0  0  0  0  0999 V2000
   -1.2391   -0.6661    0.5052 C   0  0  0  0  0  0  0  0  0  0  0  0
   -1.2390    0.6662    0.5053 C   0  0  0  0  0  0  0  0  0  0  0  0
    0.0000    1.1217   -0.2894 C   0  0  2  0  0  0  0  0  0  0  0  0
    0.0000    0.0000   -1.3696 C   0  0  0  0  0  0  0  0  0  0  0  0
   -0.0000   -1.1217   -0.2894 C   0  0  1  0  0  0  0  0  0  0  0  0
    0.9040   -0.0000   -1.9869 H   0  0  0  0  0  0  0  0  0  0  0  0
   -0.9039    0.0001   -1.9869 H   0  0  0  0  0  0  0  0  0  0  0  0
   -1.9254   -1.3348    1.0103 H   0  0  0  0  0  0  0  0  0  0  0  0
   -1.9253    1.3349    1.0105 H   0  0  0  0  0  0  0  0  0  0  0  0
    1.2390    0.6661    0.5053 C   0  0  0  0  0  0  0  0  0  0  0  0
    0.0001    2.1587   -0.6293 H   0  0  0  0  0  0  0  0  0  0  0  0
    1.2390   -0.6662    0.5052 C   0  0  0  0  0  0  0  0  0  0  0  0
   -0.0001   -2.1586   -0.6293 H   0  0  0  0  0  0  0  0  0  0  0  0
    1.9253   -1.3349    1.0103 H   0  0  0  0  0  0  0  0  0  0  0  0
    1.9253    1.3347    1.0106 H   0  0  0  0  0  0  0  0  0  0  0  0
  1  2  2  0  0  0  0
  1  8  1  0  0  0  0
  2  9  1  0  0  0  0
  3 11  1  6  0  0  0
  3  2  1  0  0  0  0
  3 10  1  0  0  0  0
  4  5  1  0  0  0  0
  4  3  1  0  0  0  0
  5 13  1  6  0  0  0
  5  1  1  0  0  0  0
  5 12  1  0  0  0  0
  6  4  1  0  0  0  0
  7  4  1  0  0  0  0
 10 15  1  0  0  0  0
 12 10  2  0  0  0  0
 12 14  1  0  0  0  0
M  END
$$$$
