Compound 008, distorted structure 06
 OpenBabel11072411413D

 15 16  0  0  1  0  0  0  0  0999 V2000
   -1.2743   -0.7013    0.4673 C   0  0  0  0  0  0  0  0  0  0  0  0
   -1.2372    0.6411    0.5390 C   0  0  0  0  0  0  0  0  0  0  0  0
    0.0009    1.1012   -0.3421 C   0  0  2  0  0  0  0  0  0  0  0  0
   -0.0439    0.0390   -1.3778 C   0  0  0  0  0  0  0  0  0  0  0  0
   -0.0089   -1.1681   -0.3357 C   0  0  1  0  0  0  0  0  0  0  0  0
    0.9560    0.0436   -2.0022 H   0  0  0  0  0  0  0  0  0  0  0  0
   -0.8782    0.0435   -1.9646 H   0  0  0  0  0  0  0  0  0  0  0  0
   -1.9178   -1.2903    0.9625 H   0  0  0  0  0  0  0  0  0  0  0  0
   -1.9208    1.3623    1.0153 H   0  0  0  0  0  0  0  0  0  0  0  0
    1.2804    0.7056    0.4647 C   0  0  0  0  0  0  0  0  0  0  0  0
    0.0456    2.1061   -0.6400 H   0  0  0  0  0  0  0  0  0  0  0  0
    1.2255   -0.6546    0.4669 C   0  0  0  0  0  0  0  0  0  0  0  0
    0.0451   -2.1116   -0.6243 H   0  0  0  0  0  0  0  0  0  0  0  0
    1.8744   -1.3436    0.9583 H   0  0  0  0  0  0  0  0  0  0  0  0
    1.9358    1.3669    0.9846 H   0  0  0  0  0  0  0  0  0  0  0  0
  1  2  2  0  0  0  0
  1  8  1  0  0  0  0
  2  9  1  0  0  0  0
  3 11  1  6  0  0  0
  3 10  1  0  0  0  0
  3  2  1  0  0  0  0
  4  3  1  0  0  0  0
  4  5  1  0  0  0  0
  5 13  1  6  0  0  0
  5 12  1  0  0  0  0
  5  1  1  0  0  0  0
  6  4  1  0  0  0  0
  7  4  1  0  0  0  0
 10 12  2  0  0  0  0
 10 15  1  0  0  0  0
 12 14  1  0  0  0  0
M  END
$$$$
