Compound 010, distorted structure 08
 OpenBabel11072411423D

 17 18  0  0  0  0  0  0  0  0999 V2000
   -1.7919   -0.6644    0.1393 C   0  0  0  0  0  0  0  0  0  0  0  0
   -1.7214    0.5908    0.1255 C   0  0  0  0  0  0  0  0  0  0  0  0
   -0.3736    1.2838   -0.2034 C   0  0  0  0  0  0  0  0  0  0  0  0
    0.5490   -0.0517   -0.0890 C   0  0  0  0  0  0  0  0  0  0  0  0
   -0.0172    2.0786    0.5727 H   0  0  0  0  0  0  0  0  0  0  0  0
   -0.4014    1.7635   -1.0606 H   0  0  0  0  0  0  0  0  0  0  0  0
   -0.4254   -1.2809   -0.1445 C   0  0  0  0  0  0  0  0  0  0  0  0
   -0.1270   -1.9645    0.6020 H   0  0  0  0  0  0  0  0  0  0  0  0
   -0.3281   -1.6685   -1.1979 H   0  0  0  0  0  0  0  0  0  0  0  0
    1.7409    0.0293    0.8313 C   0  0  0  0  0  0  0  0  0  0  0  0
    1.8431   -0.0642   -0.5840 C   0  0  0  0  0  0  0  0  0  0  0  0
    1.9893   -0.9269    1.3496 H   0  0  0  0  0  0  0  0  0  0  0  0
    1.9786    0.8514    1.4636 H   0  0  0  0  0  0  0  0  0  0  0  0
    2.3129   -0.9320   -1.0924 H   0  0  0  0  0  0  0  0  0  0  0  0
    2.2273    0.8926   -1.0519 H   0  0  0  0  0  0  0  0  0  0  0  0
   -2.5614   -1.3282    0.2535 H   0  0  0  0  0  0  0  0  0  0  0  0
   -2.6295    1.3263    0.3050 H   0  0  0  0  0  0  0  0  0  0  0  0
  1 16  1  0  0  0  0
  2  1  2  0  0  0  0
  2 17  1  0  0  0  0
  3  4  1  0  0  0  0
  3  2  1  0  0  0  0
  3  5  1  0  0  0  0
  4 10  1  0  0  0  0
  6  3  1  0  0  0  0
  7  4  1  0  0  0  0
  7  1  1  0  0  0  0
  7  8  1  0  0  0  0
  9  7  1  0  0  0  0
 10 12  1  0  0  0  0
 10 13  1  0  0  0  0
 11  4  1  0  0  0  0
 11 10  1  0  0  0  0
 14 11  1  0  0  0  0
 15 11  1  0  0  0  0
M  END
$$$$
