Compound 010, distorted structure 07
 OpenBabel11072411423D

 17 18  0  0  0  0  0  0  0  0999 V2000
   -1.7837   -0.7091    0.1069 C   0  0  0  0  0  0  0  0  0  0  0  0
   -1.7062    0.6297    0.2013 C   0  0  0  0  0  0  0  0  0  0  0  0
   -0.4538    1.3162   -0.1809 C   0  0  0  0  0  0  0  0  0  0  0  0
    0.4944   -0.0037   -0.0667 C   0  0  0  0  0  0  0  0  0  0  0  0
   -0.1081    1.9923    0.6381 H   0  0  0  0  0  0  0  0  0  0  0  0
   -0.4307    1.6725   -1.0733 H   0  0  0  0  0  0  0  0  0  0  0  0
   -0.3612   -1.1946   -0.0898 C   0  0  0  0  0  0  0  0  0  0  0  0
   -0.0085   -1.9854    0.6251 H   0  0  0  0  0  0  0  0  0  0  0  0
   -0.4216   -1.7554   -1.1145 H   0  0  0  0  0  0  0  0  0  0  0  0
    1.6858   -0.0044    0.8149 C   0  0  0  0  0  0  0  0  0  0  0  0
    1.8913   -0.0424   -0.5894 C   0  0  0  0  0  0  0  0  0  0  0  0
    1.8851   -0.8672    1.4024 H   0  0  0  0  0  0  0  0  0  0  0  0
    1.8596    0.9197    1.4522 H   0  0  0  0  0  0  0  0  0  0  0  0
    2.3172   -0.9431   -1.1417 H   0  0  0  0  0  0  0  0  0  0  0  0
    2.2092    0.8368   -1.0859 H   0  0  0  0  0  0  0  0  0  0  0  0
   -2.6660   -1.2569    0.2573 H   0  0  0  0  0  0  0  0  0  0  0  0
   -2.6624    1.2151    0.3836 H   0  0  0  0  0  0  0  0  0  0  0  0
  1  2  2  0  0  0  0
  1 16  1  0  0  0  0
  2 17  1  0  0  0  0
  3  4  1  0  0  0  0
  3  2  1  0  0  0  0
  3  5  1  0  0  0  0
  4 10  1  0  0  0  0
  6  3  1  0  0  0  0
  7  4  1  0  0  0  0
  7  1  1  0  0  0  0
  7  8  1  0  0  0  0
  9  7  1  0  0  0  0
 10 12  1  0  0  0  0
 10 13  1  0  0  0  0
 11  4  1  0  0  0  0
 11 10  1  0  0  0  0
 14 11  1  0  0  0  0
 15 11  1  0  0  0  0
M  END
$$$$
