Compound 010, distorted structure 02
 OpenBabel11072411423D

 17 18  0  0  0  0  0  0  0  0999 V2000
   -1.7739   -0.6628    0.1749 C   0  0  0  0  0  0  0  0  0  0  0  0
   -1.7698    0.6568    0.1487 C   0  0  0  0  0  0  0  0  0  0  0  0
   -0.4167    1.2358   -0.0975 C   0  0  0  0  0  0  0  0  0  0  0  0
    0.5492    0.0294   -0.0270 C   0  0  0  0  0  0  0  0  0  0  0  0
   -0.0997    2.0292    0.6163 H   0  0  0  0  0  0  0  0  0  0  0  0
   -0.3491    1.6785   -1.1362 H   0  0  0  0  0  0  0  0  0  0  0  0
   -0.3955   -1.2088   -0.0961 C   0  0  0  0  0  0  0  0  0  0  0  0
   -0.0711   -2.0300    0.5782 H   0  0  0  0  0  0  0  0  0  0  0  0
   -0.3962   -1.7009   -1.1306 H   0  0  0  0  0  0  0  0  0  0  0  0
    1.7270   -0.0021    0.8346 C   0  0  0  0  0  0  0  0  0  0  0  0
    1.9272   -0.0066   -0.6637 C   0  0  0  0  0  0  0  0  0  0  0  0
    1.9200   -0.9078    1.3808 H   0  0  0  0  0  0  0  0  0  0  0  0
    1.9640    0.9151    1.4080 H   0  0  0  0  0  0  0  0  0  0  0  0
    2.2440   -0.9369   -1.0721 H   0  0  0  0  0  0  0  0  0  0  0  0
    2.2582    0.9440   -1.0850 H   0  0  0  0  0  0  0  0  0  0  0  0
   -2.6117   -1.2941    0.3440 H   0  0  0  0  0  0  0  0  0  0  0  0
   -2.6421    1.3115    0.2908 H   0  0  0  0  0  0  0  0  0  0  0  0
  1 16  1  0  0  0  0
  2  1  2  0  0  0  0
  2 17  1  0  0  0  0
  3  4  1  0  0  0  0
  3  2  1  0  0  0  0
  3  5  1  0  0  0  0
  4 10  1  0  0  0  0
  6  3  1  0  0  0  0
  7  4  1  0  0  0  0
  7  1  1  0  0  0  0
  7  8  1  0  0  0  0
  9  7  1  0  0  0  0
 10 12  1  0  0  0  0
 10 13  1  0  0  0  0
 11  4  1  0  0  0  0
 11 10  1  0  0  0  0
 14 11  1  0  0  0  0
 15 11  1  0  0  0  0
M  END
$$$$
