Compound 011, distorted structure 01
 OpenBabel11072411403D

 20 20  0  0  0  0  0  0  0  0999 V2000
   -1.5571    0.7075   -0.5100 C   0  0  0  0  0  0  0  0  0  0  0  0
   -1.5708   -0.6224   -0.2659 C   0  0  0  0  0  0  0  0  0  0  0  0
   -0.6454   -1.4093    0.6185 C   0  0  0  0  0  0  0  0  0  0  0  0
    0.6721   -1.7866   -0.0682 C   0  0  0  0  0  0  0  0  0  0  0  0
   -1.1555   -2.3438    0.9144 H   0  0  0  0  0  0  0  0  0  0  0  0
   -0.4329   -0.8698    1.5559 H   0  0  0  0  0  0  0  0  0  0  0  0
    1.5764   -0.6884   -0.5403 C   0  0  0  0  0  0  0  0  0  0  0  0
    0.4450   -2.4345   -0.9238 H   0  0  0  0  0  0  0  0  0  0  0  0
    1.2702   -2.4385    0.6187 H   0  0  0  0  0  0  0  0  0  0  0  0
    1.5591    0.6239   -0.2755 C   0  0  0  0  0  0  0  0  0  0  0  0
    0.6544    1.3816    0.6647 C   0  0  0  0  0  0  0  0  0  0  0  0
   -0.6942    1.7925    0.0019 C   0  0  0  0  0  0  0  0  0  0  0  0
    1.1643    2.3007    0.9706 H   0  0  0  0  0  0  0  0  0  0  0  0
    0.4572    0.8314    1.5930 H   0  0  0  0  0  0  0  0  0  0  0  0
   -0.4477    2.4561   -0.8396 H   0  0  0  0  0  0  0  0  0  0  0  0
   -1.2603    2.4104    0.6970 H   0  0  0  0  0  0  0  0  0  0  0  0
   -2.3377    1.0490   -1.2104 H   0  0  0  0  0  0  0  0  0  0  0  0
   -2.3094   -1.2224   -0.7980 H   0  0  0  0  0  0  0  0  0  0  0  0
    2.3259   -1.0223   -1.2504 H   0  0  0  0  0  0  0  0  0  0  0  0
    2.2917    1.2249   -0.7745 H   0  0  0  0  0  0  0  0  0  0  0  0
  1  2  2  0  0  0  0
  1 12  1  0  0  0  0
  2  3  1  0  0  0  0
  3  5  1  0  0  0  0
  3  6  1  0  0  0  0
  4  3  1  0  0  0  0
  4  9  1  0  0  0  0
  7 10  2  0  0  0  0
  7  4  1  0  0  0  0
  8  4  1  0  0  0  0
 10 11  1  0  0  0  0
 11 13  1  0  0  0  0
 11 14  1  0  0  0  0
 12 11  1  0  0  0  0
 12 16  1  0  0  0  0
 15 12  1  0  0  0  0
 17  1  1  0  0  0  0
 18  2  1  0  0  0  0
 19  7  1  0  0  0  0
 20 10  1  0  0  0  0
M  END
$$$$
