Compound 014 optimized with r2SCAN-3c
 OpenBabel11072411383D

 10 10  0  0  0  0  0  0  0  0999 V2000
    1.1972   -0.6916    0.0004 N   0  0  0  0  0  0  0  0  0  0  0  0
    1.1826    0.6450    0.0001 C   0  0  0  0  0  0  0  0  0  0  0  0
    0.0001    1.3735    0.0001 C   0  0  0  0  0  0  0  0  0  0  0  0
   -1.1825    0.6452   -0.0001 C   0  0  0  0  0  0  0  0  0  0  0  0
   -1.1973   -0.6914   -0.0001 N   0  0  0  0  0  0  0  0  0  0  0  0
   -0.0001   -1.2852    0.0002 C   0  0  0  0  0  0  0  0  0  0  0  0
    2.1516    1.1443   -0.0005 H   0  0  0  0  0  0  0  0  0  0  0  0
    0.0002    2.4589    0.0005 H   0  0  0  0  0  0  0  0  0  0  0  0
   -2.1513    1.1447   -0.0000 H   0  0  0  0  0  0  0  0  0  0  0  0
   -0.0002   -2.3757    0.0001 H   0  0  0  0  0  0  0  0  0  0  0  0
  2  3  2  0  0  0  0
  2  1  1  0  0  0  0
  3  8  1  0  0  0  0
  4  9  1  0  0  0  0
  4  3  1  0  0  0  0
  5  4  2  0  0  0  0
  5  6  1  0  0  0  0
  6  1  2  0  0  0  0
  7  2  1  0  0  0  0
 10  6  1  0  0  0  0
M  END
$$$$
