Compound 014, distorted structure 02
 OpenBabel11072411383D

 10 10  0  0  0  0  0  0  0  0999 V2000
    1.1735   -0.6664    0.0192 N   0  0  0  0  0  0  0  0  0  0  0  0
    1.1535    0.6733   -0.0139 C   0  0  0  0  0  0  0  0  0  0  0  0
    0.0184    1.3629   -0.0090 C   0  0  0  0  0  0  0  0  0  0  0  0
   -1.1731    0.6273    0.0018 C   0  0  0  0  0  0  0  0  0  0  0  0
   -1.2198   -0.6838    0.0110 N   0  0  0  0  0  0  0  0  0  0  0  0
   -0.0011   -1.2743   -0.0267 C   0  0  0  0  0  0  0  0  0  0  0  0
    2.1422    1.1456    0.0127 H   0  0  0  0  0  0  0  0  0  0  0  0
    0.0138    2.4790   -0.0188 H   0  0  0  0  0  0  0  0  0  0  0  0
   -2.1271    1.1167    0.0223 H   0  0  0  0  0  0  0  0  0  0  0  0
    0.0264   -2.3569   -0.0168 H   0  0  0  0  0  0  0  0  0  0  0  0
  2  3  2  0  0  0  0
  2  7  1  0  0  0  0
  2  1  1  0  0  0  0
  3  4  1  0  0  0  0
  4  5  2  0  0  0  0
  4  9  1  0  0  0  0
  6 10  1  0  0  0  0
  6  5  1  0  0  0  0
  6  1  2  0  0  0  0
  8  3  1  0  0  0  0
M  END
$$$$
