Compound 014, distorted structure 06
 OpenBabel11072411383D

 10 10  0  0  0  0  0  0  0  0999 V2000
    1.2722   -0.6221   -0.0722 N   0  0  0  0  0  0  0  0  0  0  0  0
    1.1792    0.6304    0.0165 C   0  0  0  0  0  3  0  0  0  0  0  0
   -0.0753    1.4284   -0.0701 C   0  0  0  0  0  3  0  0  0  0  0  0
   -1.2213    0.6473   -0.0579 C   0  0  0  0  0  0  0  0  0  0  0  0
   -1.2045   -0.6251    0.0020 N   0  0  0  0  0  0  0  0  0  0  0  0
   -0.0280   -1.2926    0.0351 C   0  0  0  0  0  0  0  0  0  0  0  0
    2.0926    1.1736   -0.0693 H   0  0  0  0  0  0  0  0  0  0  0  0
    0.0134    2.5198    0.0494 H   0  0  0  0  0  0  0  0  0  0  0  0
   -2.1338    1.1007   -0.0262 H   0  0  0  0  0  0  0  0  0  0  0  0
   -0.0450   -2.4073   -0.0242 H   0  0  0  0  0  0  0  0  0  0  0  0
  1  2  1  0  0  0  0
  1  6  2  0  0  0  0
  3  4  1  0  0  0  0
  3  2  1  0  0  0  0
  3  8  1  0  0  0  0
  4  9  1  0  0  0  0
  4  5  2  0  0  0  0
  5  6  1  0  0  0  0
  7  2  1  0  0  0  0
 10  6  1  0  0  0  0
M  END
$$$$
