Compound 014, distorted structure 01
 OpenBabel11072411383D

 10 10  0  0  0  0  0  0  0  0999 V2000
    1.1853   -0.6905   -0.0190 N   0  0  0  0  0  0  0  0  0  0  0  0
    1.1650    0.6419    0.0155 C   0  0  0  0  0  0  0  0  0  0  0  0
   -0.0165    1.3888    0.0228 C   0  0  0  0  0  0  0  0  0  0  0  0
   -1.1898    0.6643    0.0198 C   0  0  0  0  0  0  0  0  0  0  0  0
   -1.2049   -0.6714   -0.0178 N   0  0  0  0  0  0  0  0  0  0  0  0
   -0.0060   -1.2743    0.0147 C   0  0  0  0  0  0  0  0  0  0  0  0
    2.1448    1.1378    0.0048 H   0  0  0  0  0  0  0  0  0  0  0  0
    0.0047    2.4449    0.0068 H   0  0  0  0  0  0  0  0  0  0  0  0
   -2.1578    1.1288    0.0101 H   0  0  0  0  0  0  0  0  0  0  0  0
    0.0006   -2.3663    0.0154 H   0  0  0  0  0  0  0  0  0  0  0  0
  1  6  2  0  0  0  0
  1  2  1  0  0  0  0
  2  3  2  0  0  0  0
  4  3  1  0  0  0  0
  5  6  1  0  0  0  0
  5  4  2  0  0  0  0
  6 10  1  0  0  0  0
  7  2  1  0  0  0  0
  8  3  1  0  0  0  0
  9  4  1  0  0  0  0
M  END
$$$$
