Compound 015, distorted structure 08
 OpenBabel11072411383D

 11 11  0  0  0  0  0  0  0  0999 V2000
   -0.6590   -1.1386    0.0451 C   0  0  0  0  0  0  0  0  0  0  0  0
    0.7337   -1.1167   -0.0434 C   0  0  0  0  0  0  0  0  0  0  0  0
    1.4810   -0.0656   -0.0190 C   0  0  0  0  0  0  0  0  0  0  0  0
    0.7002    1.1529    0.0744 C   0  0  0  0  0  0  0  0  0  0  0  0
   -0.7553    1.0699   -0.0675 C   0  0  0  0  0  0  0  0  0  0  0  0
   -1.4464   -0.0618   -0.0597 N   0  0  0  0  0  0  0  0  0  0  0  0
    1.2868    2.1127   -0.0686 H   0  0  0  0  0  0  0  0  0  0  0  0
   -1.2046    2.1042   -0.0450 H   0  0  0  0  0  0  0  0  0  0  0  0
    1.2071   -2.1377   -0.0826 H   0  0  0  0  0  0  0  0  0  0  0  0
    2.4056    0.0227    0.0836 H   0  0  0  0  0  0  0  0  0  0  0  0
   -1.2541   -1.9866    0.0323 H   0  0  0  0  0  0  0  0  0  0  0  0
  2  3  2  0  0  0  0
  2  1  1  0  0  0  0
  3  4  1  0  0  0  0
  3 10  1  0  0  0  0
  5  6  1  0  0  0  0
  5  8  1  0  0  0  0
  5  4  2  0  0  0  0
  6  1  2  0  0  0  0
  7  4  1  0  0  0  0
  9  2  1  0  0  0  0
 11  1  1  0  0  0  0
M  END
$$$$
