Compound 015, distorted structure 04
 OpenBabel11072411383D

 11 11  0  0  0  0  0  0  0  0999 V2000
   -0.6703   -1.1500   -0.0144 C   0  0  0  0  0  0  0  0  0  0  0  0
    0.6904   -1.2033   -0.0109 C   0  0  0  0  0  0  0  0  0  0  0  0
    1.4410   -0.0005    0.0169 C   0  0  0  0  0  0  0  0  0  0  0  0
    0.6491    1.2253   -0.0052 C   0  0  0  0  0  0  0  0  0  0  0  0
   -0.7009    1.1533    0.0124 C   0  0  0  0  0  0  0  0  0  0  0  0
   -1.3458    0.0084   -0.0158 N   0  0  0  0  0  0  0  0  0  0  0  0
    1.2234    2.1796   -0.0337 H   0  0  0  0  0  0  0  0  0  0  0  0
   -1.3295    2.0417   -0.0438 H   0  0  0  0  0  0  0  0  0  0  0  0
    1.1947   -2.1944   -0.0477 H   0  0  0  0  0  0  0  0  0  0  0  0
    2.4729    0.0260    0.0291 H   0  0  0  0  0  0  0  0  0  0  0  0
   -1.2854   -2.0849    0.0434 H   0  0  0  0  0  0  0  0  0  0  0  0
  1  2  1  0  0  0  0
  1 11  1  0  0  0  0
  2  3  2  0  0  0  0
  3 10  1  0  0  0  0
  4  5  2  0  0  0  0
  4  3  1  0  0  0  0
  6  1  2  0  0  0  0
  6  5  1  0  0  0  0
  7  4  1  0  0  0  0
  8  5  1  0  0  0  0
  9  2  1  0  0  0  0
M  END
$$$$
