Compound 016, distorted structure 08
 OpenBabel11072411373D

 12 11  0  0  0  0  0  0  0  0999 V2000
    1.1957   -1.2234   -0.2504 C   0  0  0  0  0  0  0  0  0  0  0  0
    0.3993    0.0509    0.3188 C   0  0  0  0  0  0  0  0  0  0  0  0
    1.1039   -1.2991   -1.2200 H   0  0  0  0  0  0  0  0  0  0  0  0
    0.5771   -2.1109    0.3123 H   0  0  0  0  0  0  0  0  0  0  0  0
    2.1567   -1.3369    0.0827 H   0  0  0  0  0  0  0  0  0  0  0  0
    1.0693    1.2692   -0.1125 C   0  0  0  0  0  0  0  0  0  0  0  0
    0.6654    2.1208    0.2798 H   0  0  0  0  0  0  0  0  0  0  0  0
    1.0764    1.2747   -1.2940 H   0  0  0  0  0  0  0  0  0  0  0  0
    2.2065    1.2180    0.1800 H   0  0  0  0  0  0  0  0  0  0  0  0
    0.5325    0.0011    1.5238 H   0  0  0  0  0  0  0  0  0  0  0  0
   -1.0602    0.0555    0.1839 C   0  0  0  0  0  0  0  0  0  0  0  0
   -2.1445    0.0324   -0.1681 N   0  0  0  0  0  0  0  0  0  0  0  0
  1  5  1  0  0  0  0
  1  4  1  0  0  0  0
  1  2  1  0  0  0  0
  2 10  1  0  0  0  0
  3  1  1  0  0  0  0
  6  9  1  0  0  0  0
  6  7  1  0  0  0  0
  6  2  1  0  0  0  0
  8  6  1  0  0  0  0
 11  2  1  0  0  0  0
 12 11  3  0  0  0  0
M  END
$$$$
