Compound 016, distorted structure 03
 OpenBabel11072411373D

 12 11  0  0  0  0  0  0  0  0999 V2000
    1.1004   -1.2517   -0.1709 C   0  0  0  0  0  0  0  0  0  0  0  0
    0.4534    0.0232    0.4012 C   0  0  0  0  0  0  0  0  0  0  0  0
    1.0333   -1.2766   -1.2171 H   0  0  0  0  0  0  0  0  0  0  0  0
    0.6476   -2.1641    0.2814 H   0  0  0  0  0  0  0  0  0  0  0  0
    2.1482   -1.2513    0.0646 H   0  0  0  0  0  0  0  0  0  0  0  0
    1.0748    1.2529   -0.1756 C   0  0  0  0  0  0  0  0  0  0  0  0
    0.6050    2.1606    0.2628 H   0  0  0  0  0  0  0  0  0  0  0  0
    1.0307    1.3451   -1.2808 H   0  0  0  0  0  0  0  0  0  0  0  0
    2.1472    1.3140    0.0634 H   0  0  0  0  0  0  0  0  0  0  0  0
    0.5694   -0.0012    1.5257 H   0  0  0  0  0  0  0  0  0  0  0  0
   -0.9922    0.0428    0.1002 C   0  0  0  0  0  0  0  0  0  0  0  0
   -2.0641    0.0241   -0.1231 N   0  0  0  0  0  0  0  0  0  0  0  0
  1  5  1  0  0  0  0
  1  4  1  0  0  0  0
  1  2  1  0  0  0  0
  2 10  1  0  0  0  0
  3  1  1  0  0  0  0
  6  9  1  0  0  0  0
  6  7  1  0  0  0  0
  6  2  1  0  0  0  0
  8  6  1  0  0  0  0
 11  2  1  0  0  0  0
 12 11  3  0  0  0  0
M  END
$$$$
