Compound 017, distorted structure 06
 OpenBabel11072411383D

 13 12  0  0  0  0  0  0  0  0999 V2000
   -2.7164   -0.5898    0.1054 C   0  0  0  0  0  0  0  0  0  0  0  0
   -1.1897   -0.3116    0.1882 C   0  0  0  0  0  0  0  0  0  0  0  0
   -3.1266    0.1443   -0.4743 H   0  0  0  0  0  0  0  0  0  0  0  0
   -3.1849   -0.6860    1.0194 H   0  0  0  0  0  0  0  0  0  0  0  0
   -2.8022   -1.6613   -0.4812 H   0  0  0  0  0  0  0  0  0  0  0  0
   -0.6400    0.7927   -0.4465 C   0  0  0  0  0  0  0  0  0  0  0  0
    0.9003    1.0992   -0.2797 C   0  0  0  0  0  0  0  0  0  0  0  0
    1.6807    0.0296    0.4769 C   0  0  0  0  0  0  0  0  0  0  0  0
    0.9858    2.0191    0.1828 H   0  0  0  0  0  0  0  0  0  0  0  0
    1.2580    1.1142   -1.3477 H   0  0  0  0  0  0  0  0  0  0  0  0
   -0.6117   -1.0521    0.6502 H   0  0  0  0  0  0  0  0  0  0  0  0
   -1.2021    1.4650   -0.9554 H   0  0  0  0  0  0  0  0  0  0  0  0
    2.3041   -0.7811    1.0327 N   0  0  0  0  0  0  0  0  0  0  0  0
  1  2  1  0  0  0  0
  1  4  1  0  0  0  0
  2 11  1  0  0  0  0
  3  1  1  0  0  0  0
  5  1  1  0  0  0  0
  6  7  1  0  0  0  0
  6  2  2  0  0  0  0
  7  9  1  0  0  0  0
  7  8  1  0  0  0  0
  8 13  3  0  0  0  0
 10  7  1  0  0  0  0
 12  6  1  0  0  0  0
M  END
$$$$
