Compound 018, distorted structure 06
 OpenBabel11072411393D

 15 14  0  0  1  0  0  0  0  0999 V2000
   -1.9841   -0.1000   -0.1148 N   0  0  0  0  0  0  0  0  0  0  0  0
   -0.7060   -0.6944    0.3162 C   0  0  0  0  0  0  0  0  0  0  0  0
    0.4671    0.0142   -0.4066 C   0  0  2  0  0  0  0  0  0  0  0  0
   -0.6115   -1.8333    0.0132 H   0  0  0  0  0  0  0  0  0  0  0  0
   -0.5390   -0.6087    1.4809 H   0  0  0  0  0  0  0  0  0  0  0  0
    1.7907   -0.7495    0.0534 C   0  0  0  0  0  0  0  0  0  0  0  0
    1.8456   -1.7428   -0.4117 H   0  0  0  0  0  0  0  0  0  0  0  0
    1.8869   -0.6371    1.1866 H   0  0  0  0  0  0  0  0  0  0  0  0
    2.5745   -0.1739   -0.4151 H   0  0  0  0  0  0  0  0  0  0  0  0
    0.4637    1.3563    0.1478 N   0  0  0  0  0  0  0  0  0  0  0  0
    0.3573   -0.0555   -1.4282 H   0  0  0  0  0  0  0  0  0  0  0  0
   -2.7223   -0.4654    0.3984 H   0  0  0  0  0  0  0  0  0  0  0  0
   -2.2479   -0.3807   -1.0111 H   0  0  0  0  0  0  0  0  0  0  0  0
   -0.4137    1.8144    0.0401 H   0  0  0  0  0  0  0  0  0  0  0  0
    1.2471    1.8752   -0.4481 H   0  0  0  0  0  0  0  0  0  0  0  0
  1  2  1  0  0  0  0
  1 12  1  0  0  0  0
  2  5  1  0  0  0  0
  3 11  1  6  0  0  0
  3  6  1  0  0  0  0
  3 10  1  0  0  0  0
  3  2  1  0  0  0  0
  4  2  1  0  0  0  0
  6  8  1  0  0  0  0
  7  6  1  0  0  0  0
  9  6  1  0  0  0  0
 13  1  1  0  0  0  0
 14 10  1  0  0  0  0
 15 10  1  0  0  0  0
M  END
$$$$
