Compound 018, distorted structure 05
 OpenBabel11072411403D

 15 14  0  0  1  0  0  0  0  0999 V2000
   -1.9535   -0.0534   -0.1420 N   0  0  0  0  0  0  0  0  0  0  0  0
   -0.6868   -0.6391    0.2901 C   0  0  0  0  0  0  0  0  0  0  0  0
    0.5244   -0.0009   -0.3854 C   0  0  2  0  0  0  0  0  0  0  0  0
   -0.6150   -1.7993    0.1027 H   0  0  0  0  0  0  0  0  0  0  0  0
   -0.5706   -0.6076    1.4365 H   0  0  0  0  0  0  0  0  0  0  0  0
    1.8485   -0.7122   -0.0282 C   0  0  0  0  0  0  0  0  0  0  0  0
    1.8372   -1.7489   -0.3035 H   0  0  0  0  0  0  0  0  0  0  0  0
    1.9416   -0.6346    1.0772 H   0  0  0  0  0  0  0  0  0  0  0  0
    2.6974   -0.2233   -0.4759 H   0  0  0  0  0  0  0  0  0  0  0  0
    0.5389    1.3788    0.1915 N   0  0  0  0  0  0  0  0  0  0  0  0
    0.3035   -0.1002   -1.4453 H   0  0  0  0  0  0  0  0  0  0  0  0
   -2.7258   -0.3472    0.4804 H   0  0  0  0  0  0  0  0  0  0  0  0
   -2.1508   -0.2774   -1.0337 H   0  0  0  0  0  0  0  0  0  0  0  0
   -0.4381    1.7566   -0.0428 H   0  0  0  0  0  0  0  0  0  0  0  0
    1.2225    1.9237   -0.4655 H   0  0  0  0  0  0  0  0  0  0  0  0
  1  2  1  0  0  0  0
  1 12  1  0  0  0  0
  2  5  1  0  0  0  0
  3 11  1  6  0  0  0
  3  6  1  0  0  0  0
  3 10  1  0  0  0  0
  3  2  1  0  0  0  0
  4  2  1  0  0  0  0
  6  8  1  0  0  0  0
  7  6  1  0  0  0  0
  9  6  1  0  0  0  0
 13  1  1  0  0  0  0
 14 10  1  0  0  0  0
 15 10  1  0  0  0  0
M  END
$$$$
