Compound 019, distorted structure 09
 OpenBabel11072411393D

 16 16  0  0  0  0  0  0  0  0999 V2000
    0.7629   -1.2562    0.3282 C   0  0  0  0  0  0  0  0  0  0  0  0
   -0.6626   -1.1776   -0.2305 C   0  0  0  0  0  0  0  0  0  0  0  0
   -1.3270   -0.0985    0.2044 N   0  0  0  0  0  0  0  0  0  0  0  0
   -0.7588    1.3054   -0.3332 C   0  0  0  0  0  0  0  0  0  0  0  0
   -2.3289    0.1191   -0.2077 H   0  0  0  0  0  0  0  0  0  0  0  0
    0.6593    1.1266    0.2118 C   0  0  0  0  0  0  0  0  0  0  0  0
    1.4379   -0.0459   -0.2729 N   0  0  0  0  0  0  0  0  0  0  0  0
    2.4690   -0.0655    0.0088 H   0  0  0  0  0  0  0  0  0  0  0  0
    1.3050   -2.0205   -0.0312 H   0  0  0  0  0  0  0  0  0  0  0  0
    0.7340   -1.1585    1.4574 H   0  0  0  0  0  0  0  0  0  0  0  0
   -1.1262   -2.2143    0.0685 H   0  0  0  0  0  0  0  0  0  0  0  0
   -0.6887   -1.3605   -1.3105 H   0  0  0  0  0  0  0  0  0  0  0  0
    0.7921    1.2455    1.3448 H   0  0  0  0  0  0  0  0  0  0  0  0
    1.2365    2.0969   -0.2313 H   0  0  0  0  0  0  0  0  0  0  0  0
   -1.3605    2.0346    0.1249 H   0  0  0  0  0  0  0  0  0  0  0  0
   -0.7937    1.2887   -1.4626 H   0  0  0  0  0  0  0  0  0  0  0  0
  1 10  1  0  0  0  0
  2 11  1  0  0  0  0
  2  3  1  0  0  0  0
  2  1  1  0  0  0  0
  4 15  1  0  0  0  0
  4  3  1  0  0  0  0
  4  6  1  0  0  0  0
  5  3  1  0  0  0  0
  6 13  1  0  0  0  0
  7  8  1  0  0  0  0
  7  6  1  0  0  0  0
  7  1  1  0  0  0  0
  9  1  1  0  0  0  0
 12  2  1  0  0  0  0
 14  6  1  0  0  0  0
 16  4  1  0  0  0  0
M  END
$$$$
