Compound 020, distorted structure 09
 OpenBabel11072411393D

 16 17  0  0  0  0  0  0  0  0999 V2000
   -2.1530   -0.6803   -0.0434 C   0  0  0  0  0  0  0  0  0  0  0  0
   -2.1098    0.6291    0.0037 C   0  0  0  0  0  0  0  0  0  0  0  0
   -0.9516    1.3593    0.0068 C   0  0  0  0  0  0  0  0  0  0  0  0
    0.2323    0.7604    0.0424 C   0  0  0  0  0  0  0  0  0  0  0  0
    0.3189   -0.8076   -0.0333 C   0  0  0  0  0  0  0  0  0  0  0  0
   -1.0690   -1.4132   -0.0010 C   0  0  0  0  0  0  0  0  0  0  0  0
    1.5717    1.1142   -0.0657 N   0  0  0  0  0  0  0  0  0  0  0  0
    2.4027    0.0139   -0.0757 C   0  0  0  0  0  0  0  0  0  0  0  0
    1.6443   -1.2212   -0.0456 C   0  0  0  0  0  0  0  0  0  0  0  0
    1.9536    1.9909   -0.0959 H   0  0  0  0  0  0  0  0  0  0  0  0
   -3.0657    1.2774   -0.0596 H   0  0  0  0  0  0  0  0  0  0  0  0
   -0.9089    2.5785    0.0788 H   0  0  0  0  0  0  0  0  0  0  0  0
   -1.0678   -2.4976   -0.0317 H   0  0  0  0  0  0  0  0  0  0  0  0
   -3.1633   -1.1926    0.0030 H   0  0  0  0  0  0  0  0  0  0  0  0
    3.3979    0.1332    0.0627 H   0  0  0  0  0  0  0  0  0  0  0  0
    2.0166   -2.2168   -0.0379 H   0  0  0  0  0  0  0  0  0  0  0  0
  1  6  2  0  0  0  0
  1 14  1  0  0  0  0
  1  2  1  0  0  0  0
  2  3  2  0  0  0  0
  3  4  1  0  0  0  0
  3 12  1  0  0  0  0
  5  6  1  0  0  0  0
  5  4  2  0  0  0  0
  7  4  1  0  0  0  0
  8  7  1  0  0  0  0
  8  9  2  0  0  0  0
  8 15  1  0  0  0  0
  9 16  1  0  0  0  0
  9  5  1  0  0  0  0
 10  7  1  0  0  0  0
 11  2  1  0  0  0  0
 13  6  1  0  0  0  0
M  END
$$$$
