Compound 023, distorted structure 08
 OpenBabel11072411373D

  8  8  0  0  0  0  0  0  0  0999 V2000
   -0.2155   -1.1977   -0.0898 C   0  0  0  0  0  0  0  0  0  0  0  0
   -1.2132   -0.1928   -0.0960 C   0  0  0  0  0  0  0  0  0  0  0  0
   -0.5074    0.9359    0.0870 O   0  0  0  0  0  0  0  0  0  0  0  0
    0.7493    0.7562   -0.0013 N   0  0  0  0  0  0  0  0  0  0  0  0
    1.0549   -0.5212   -0.1144 C   0  0  0  0  0  0  0  0  0  0  0  0
   -0.3666   -2.3042   -0.0603 H   0  0  0  0  0  0  0  0  0  0  0  0
   -2.0919   -0.2730   -0.0429 H   0  0  0  0  0  0  0  0  0  0  0  0
    2.0458   -0.7727    0.0552 H   0  0  0  0  0  0  0  0  0  0  0  0
  1  6  1  0  0  0  0
  2  1  2  0  0  0  0
  2  7  1  0  0  0  0
  2  3  1  0  0  0  0
  4  3  1  0  0  0  0
  5  1  1  0  0  0  0
  5  4  2  0  0  0  0
  5  8  1  0  0  0  0
M  END
$$$$
