Compound 028, distorted structure 05
 OpenBabel11072411363D

 10  9  0  0  0  0  0  0  0  0999 V2000
    1.2429    0.7484   -0.0424 C   0  0  0  0  0  0  0  0  0  0  0  0
   -0.0262   -0.1534    0.0236 C   0  0  0  0  0  0  0  0  0  0  0  0
    0.0386   -1.3168   -0.0420 O   0  0  0  0  0  0  0  0  0  0  0  0
   -1.2353    0.6554   -0.0370 C   0  0  0  0  0  0  0  0  0  0  0  0
    1.2810    1.5581   -0.7598 H   0  0  0  0  0  0  0  0  0  0  0  0
    2.1140    0.0069   -0.2560 H   0  0  0  0  0  0  0  0  0  0  0  0
    1.3799    1.1143    0.9740 H   0  0  0  0  0  0  0  0  0  0  0  0
   -1.4191    1.1477   -0.9409 H   0  0  0  0  0  0  0  0  0  0  0  0
   -1.2441    1.5698    0.7714 H   0  0  0  0  0  0  0  0  0  0  0  0
   -2.1404    0.0041    0.2347 H   0  0  0  0  0  0  0  0  0  0  0  0
  1  2  1  0  0  0  0
  1  7  1  0  0  0  0
  3  2  2  0  0  0  0
  4  2  1  0  0  0  0
  4 10  1  0  0  0  0
  4  9  1  0  0  0  0
  5  1  1  0  0  0  0
  6  1  1  0  0  0  0
  8  4  1  0  0  0  0
M  END
$$$$
