Compound 032, distorted structure 01
 OpenBabel11072411343D

 11 11  0  0  0  0  0  0  0  0999 V2000
   -1.1606    0.0200    0.0104 O   0  0  0  0  0  0  0  0  0  0  0  0
   -0.3565    1.1922   -0.0194 C   0  0  0  0  0  0  0  0  0  0  0  0
    1.0612    0.6468   -0.0045 C   0  0  0  0  0  0  0  0  0  0  0  0
    1.0521   -0.6755    0.0185 C   0  0  0  0  0  0  0  0  0  0  0  0
   -0.3581   -1.1844    0.0079 C   0  0  0  0  0  0  0  0  0  0  0  0
   -0.5906   -1.8003   -0.8816 H   0  0  0  0  0  0  0  0  0  0  0  0
   -0.5653   -1.8026    0.8805 H   0  0  0  0  0  0  0  0  0  0  0  0
    1.9462   -1.2951   -0.0171 H   0  0  0  0  0  0  0  0  0  0  0  0
    1.9280    1.3212   -0.0203 H   0  0  0  0  0  0  0  0  0  0  0  0
   -0.5605    1.7662   -0.8965 H   0  0  0  0  0  0  0  0  0  0  0  0
   -0.5903    1.7681    0.8910 H   0  0  0  0  0  0  0  0  0  0  0  0
  2  3  1  0  0  0  0
  2  1  1  0  0  0  0
  2 11  1  0  0  0  0
  3  4  2  0  0  0  0
  5  1  1  0  0  0  0
  5  4  1  0  0  0  0
  5  7  1  0  0  0  0
  6  5  1  0  0  0  0
  8  4  1  0  0  0  0
  9  3  1  0  0  0  0
 10  2  1  0  0  0  0
M  END
$$$$
