Compound 033, distorted structure 03
 OpenBabel11072411353D

 11 10  0  0  0  0  0  0  0  0999 V2000
    1.7619    0.6255   -0.0060 C   0  0  0  0  0  0  0  0  0  0  0  0
    0.4273   -0.0989    0.1136 C   0  0  0  0  0  0  0  0  0  0  0  0
    0.3019   -1.2154    0.4895 O   0  0  0  0  0  0  0  0  0  0  0  0
   -0.6017    0.7645   -0.2050 O   0  0  0  0  0  0  0  0  0  0  0  0
   -1.8947    0.1145   -0.0751 C   0  0  0  0  0  0  0  0  0  0  0  0
    2.2811    0.5447    0.9076 H   0  0  0  0  0  0  0  0  0  0  0  0
    1.6221    1.7207   -0.3399 H   0  0  0  0  0  0  0  0  0  0  0  0
    2.4029    0.0688   -0.7362 H   0  0  0  0  0  0  0  0  0  0  0  0
   -2.0445   -0.2905    0.9867 H   0  0  0  0  0  0  0  0  0  0  0  0
   -1.9449   -0.7488   -0.7559 H   0  0  0  0  0  0  0  0  0  0  0  0
   -2.5811    0.8974   -0.3208 H   0  0  0  0  0  0  0  0  0  0  0  0
  1  2  1  0  0  0  0
  1  6  1  0  0  0  0
  2  3  2  0  0  0  0
  4  5  1  0  0  0  0
  4  2  1  0  0  0  0
  5  9  1  0  0  0  0
  7  1  1  0  0  0  0
  8  1  1  0  0  0  0
 10  5  1  0  0  0  0
 11  5  1  0  0  0  0
M  END
$$$$
