Compound 036, distorted structure 08
 OpenBabel11072411343D

 12 11  0  0  0  0  0  0  0  0999 V2000
    1.8876   -0.0379   -0.1360 C   0  0  0  0  0  0  0  0  0  0  0  0
    0.6099    0.5289    0.0670 C   0  0  0  0  0  0  0  0  0  0  0  0
   -0.4462   -0.5636    0.0406 C   0  0  0  0  0  0  0  0  0  0  0  0
   -0.5327   -1.0567   -0.9526 H   0  0  0  0  0  0  0  0  0  0  0  0
   -0.4430   -1.1890    0.8737 H   0  0  0  0  0  0  0  0  0  0  0  0
   -1.7764    0.2618    0.1124 O   0  0  0  0  0  0  0  0  0  0  0  0
   -2.4013   -0.4454   -0.0291 H   0  0  0  0  0  0  0  0  0  0  0  0
    0.4998    1.0502    0.8926 H   0  0  0  0  0  0  0  0  0  0  0  0
    0.4785    1.2417   -0.8178 H   0  0  0  0  0  0  0  0  0  0  0  0
    2.0950   -0.7508   -0.8546 H   0  0  0  0  0  0  0  0  0  0  0  0
    2.8066    0.6180    0.0146 H   0  0  0  0  0  0  0  0  0  0  0  0
    2.0153   -0.7570    0.8481 H   0  0  0  0  0  0  0  0  0  0  0  0
  1 11  1  0  0  0  0
  1  2  1  0  0  0  0
  1 12  1  0  0  0  0
  2  8  1  0  0  0  0
  3  2  1  0  0  0  0
  3  6  1  0  0  0  0
  3  5  1  0  0  0  0
  4  3  1  0  0  0  0
  7  6  1  0  0  0  0
  9  2  1  0  0  0  0
 10  1  1  0  0  0  0
M  END
$$$$
