Compound 036, distorted structure 01
 OpenBabel11072411343D

 12 11  0  0  0  0  0  0  0  0999 V2000
    1.9370   -0.0880   -0.0423 C   0  0  0  0  0  0  0  0  0  0  0  0
    0.5578    0.5419    0.0295 C   0  0  0  0  0  0  0  0  0  0  0  0
   -0.5290   -0.4975   -0.0080 C   0  0  0  0  0  0  0  0  0  0  0  0
   -0.4313   -1.1139   -0.9548 H   0  0  0  0  0  0  0  0  0  0  0  0
   -0.4214   -1.2224    0.8209 H   0  0  0  0  0  0  0  0  0  0  0  0
   -1.7925    0.1673    0.0384 O   0  0  0  0  0  0  0  0  0  0  0  0
   -2.5096   -0.4810   -0.0043 H   0  0  0  0  0  0  0  0  0  0  0  0
    0.4296    1.1082    0.9304 H   0  0  0  0  0  0  0  0  0  0  0  0
    0.4170    1.2038   -0.8309 H   0  0  0  0  0  0  0  0  0  0  0  0
    2.0990   -0.6743   -0.9536 H   0  0  0  0  0  0  0  0  0  0  0  0
    2.7378    0.6702   -0.0022 H   0  0  0  0  0  0  0  0  0  0  0  0
    2.1057   -0.7706    0.8243 H   0  0  0  0  0  0  0  0  0  0  0  0
  1 11  1  0  0  0  0
  1  2  1  0  0  0  0
  1 12  1  0  0  0  0
  2  8  1  0  0  0  0
  3  2  1  0  0  0  0
  3  6  1  0  0  0  0
  3  5  1  0  0  0  0
  4  3  1  0  0  0  0
  7  6  1  0  0  0  0
  9  2  1  0  0  0  0
 10  1  1  0  0  0  0
M  END
$$$$
