Compound 038, distorted structure 01
 OpenBabel11072411333D

 12 12  0  0  0  0  0  0  0  0999 V2000
    1.5308    0.6368   -0.0031 C   0  0  0  0  0  0  0  0  0  0  0  0
    0.0827    1.1989   -0.0100 C   0  0  0  0  0  0  0  0  0  0  0  0
   -0.7986   -0.0138   -0.0175 C   0  0  0  0  0  0  0  0  0  0  0  0
   -2.0319    0.0298    0.0054 O   0  0  0  0  0  0  0  0  0  0  0  0
    0.0425   -1.2062    0.0111 C   0  0  0  0  0  0  0  0  0  0  0  0
    1.3366   -0.8555   -0.0114 C   0  0  0  0  0  0  0  0  0  0  0  0
    2.0926    0.9823    0.8978 H   0  0  0  0  0  0  0  0  0  0  0  0
    2.1120    0.9621   -0.8912 H   0  0  0  0  0  0  0  0  0  0  0  0
   -0.1465    1.8298   -0.9020 H   0  0  0  0  0  0  0  0  0  0  0  0
   -0.1299    1.8296    0.8693 H   0  0  0  0  0  0  0  0  0  0  0  0
   -0.3545   -2.2335    0.0207 H   0  0  0  0  0  0  0  0  0  0  0  0
    2.1992   -1.5245    0.0203 H   0  0  0  0  0  0  0  0  0  0  0  0
  1  7  1  0  0  0  0
  2  1  1  0  0  0  0
  2 10  1  0  0  0  0
  3  2  1  0  0  0  0
  3  4  2  0  0  0  0
  3  5  1  0  0  0  0
  5 11  1  0  0  0  0
  6  1  1  0  0  0  0
  6  5  2  0  0  0  0
  6 12  1  0  0  0  0
  8  1  1  0  0  0  0
  9  2  1  0  0  0  0
M  END
$$$$
