Compound 041, distorted structure 07
 OpenBabel11072411333D

 13 13  0  0  0  0  0  0  0  0999 V2000
   -1.0771   -0.7673    0.2952 C   0  0  0  0  0  0  0  0  0  0  0  0
   -1.0215    0.7542   -0.2888 C   0  0  0  0  0  0  0  0  0  0  0  0
    0.3607    1.1763    0.0760 C   0  0  0  0  0  0  0  0  0  0  0  0
    1.2188    0.0639    0.0700 O   0  0  0  0  0  0  0  0  0  0  0  0
    0.4034   -1.1283   -0.1009 C   0  0  0  0  0  0  0  0  0  0  0  0
   -1.7879   -1.3459   -0.1903 H   0  0  0  0  0  0  0  0  0  0  0  0
   -1.1396   -0.8174    1.2582 H   0  0  0  0  0  0  0  0  0  0  0  0
   -1.8110    1.3564    0.2934 H   0  0  0  0  0  0  0  0  0  0  0  0
   -1.1158    0.8340   -1.2866 H   0  0  0  0  0  0  0  0  0  0  0  0
    0.4323    1.5411    1.2336 H   0  0  0  0  0  0  0  0  0  0  0  0
    0.8297    1.9710   -0.4847 H   0  0  0  0  0  0  0  0  0  0  0  0
    0.7262   -1.9852    0.4404 H   0  0  0  0  0  0  0  0  0  0  0  0
    0.4764   -1.5424   -1.1418 H   0  0  0  0  0  0  0  0  0  0  0  0
  1  7  1  0  0  0  0
  2  3  1  0  0  0  0
  2  8  1  0  0  0  0
  2  1  1  0  0  0  0
  3 10  1  0  0  0  0
  4  3  1  0  0  0  0
  5  4  1  0  0  0  0
  5  1  1  0  0  0  0
  5 12  1  0  0  0  0
  6  1  1  0  0  0  0
  9  2  1  0  0  0  0
 11  3  1  0  0  0  0
 13  5  1  0  0  0  0
M  END
$$$$
