Compound 044, distorted structure 01
 OpenBabel11072411433D

 14 14  0  0  0  0  0  0  0  0999 V2000
   -1.4416   -0.7445   -0.2335 C   0  0  0  0  0  0  0  0  0  0  0  0
   -1.4652    0.7303    0.2219 C   0  0  0  0  0  0  0  0  0  0  0  0
   -0.0601    1.2210   -0.1418 C   0  0  0  0  0  0  0  0  0  0  0  0
    0.8327    0.0075    0.0045 C   0  0  0  0  0  0  0  0  0  0  0  0
    2.0681    0.0161   -0.0038 O   0  0  0  0  0  0  0  0  0  0  0  0
   -0.0440   -1.2366    0.1236 C   0  0  0  0  0  0  0  0  0  0  0  0
   -1.6043   -0.7668   -1.3028 H   0  0  0  0  0  0  0  0  0  0  0  0
   -2.2328   -1.3075    0.2174 H   0  0  0  0  0  0  0  0  0  0  0  0
   -1.5868    0.7842    1.3088 H   0  0  0  0  0  0  0  0  0  0  0  0
   -2.2623    1.3105   -0.2410 H   0  0  0  0  0  0  0  0  0  0  0  0
    0.3312    2.0632    0.4837 H   0  0  0  0  0  0  0  0  0  0  0  0
    0.0164    1.5471   -1.1805 H   0  0  0  0  0  0  0  0  0  0  0  0
   -0.0061   -1.5393    1.1912 H   0  0  0  0  0  0  0  0  0  0  0  0
    0.3265   -2.0470   -0.4721 H   0  0  0  0  0  0  0  0  0  0  0  0
  1  6  1  0  0  0  0
  1  8  1  0  0  0  0
  1  2  1  0  0  0  0
  2  9  1  0  0  0  0
  3  4  1  0  0  0  0
  3  2  1  0  0  0  0
  3 11  1  0  0  0  0
  4  6  1  0  0  0  0
  5  4  2  0  0  0  0
  6 13  1  0  0  0  0
  7  1  1  0  0  0  0
 10  2  1  0  0  0  0
 12  3  1  0  0  0  0
 14  6  1  0  0  0  0
M  END
$$$$
