Compound 046, distorted structure 05
 OpenBabel11072411433D

 14 13  0  0  0  0  0  0  0  0999 V2000
   -1.2474    0.0550   -0.6778 C   0  0  0  0  0  0  0  0  0  0  0  0
    0.0079    0.8248   -0.5177 C   0  0  0  0  0  0  0  0  0  0  0  0
   -1.3841   -0.5178   -1.6617 H   0  0  0  0  0  0  0  0  0  0  0  0
   -2.1794    0.8112   -0.5988 H   0  0  0  0  0  0  0  0  0  0  0  0
   -1.4955   -0.9828    0.3671 O   0  0  0  0  0  0  0  0  0  0  0  0
    1.2303   -0.1670   -0.6455 C   0  0  0  0  0  0  0  0  0  0  0  0
    0.0590    1.3954    0.7572 O   0  0  0  0  0  0  0  0  0  0  0  0
    0.0267    1.5504   -1.2769 H   0  0  0  0  0  0  0  0  0  0  0  0
    1.3901   -0.9588    0.4569 O   0  0  0  0  0  0  0  0  0  0  0  0
    2.1733    0.5111   -0.7906 H   0  0  0  0  0  0  0  0  0  0  0  0
    1.1790   -0.7426   -1.6501 H   0  0  0  0  0  0  0  0  0  0  0  0
   -1.5403   -0.5366    1.2305 H   0  0  0  0  0  0  0  0  0  0  0  0
    0.6487    0.8265    1.3673 H   0  0  0  0  0  0  0  0  0  0  0  0
    0.6683   -1.5073    0.5353 H   0  0  0  0  0  0  0  0  0  0  0  0
  1  4  1  0  0  0  0
  1  2  1  0  0  0  0
  1  5  1  0  0  0  0
  2  7  1  0  0  0  0
  3  1  1  0  0  0  0
  5 12  1  0  0  0  0
  6  2  1  0  0  0  0
  6  9  1  0  0  0  0
  7 13  1  0  0  0  0
  8  2  1  0  0  0  0
  9 14  1  0  0  0  0
 10  6  1  0  0  0  0
 11  6  1  0  0  0  0
M  END
$$$$
