Compound 048, distorted structure 09
 OpenBabel11072411433D

 14 14  0  0  1  0  0  0  0  0999 V2000
   -0.7120    0.8681   -0.4712 C   0  0  2  0  0  0  0  0  0  0  0  0
   -0.7890   -0.7852   -0.1686 C   0  0  1  0  0  3  0  0  0  0  0  0
    0.4417   -1.1390    0.2299 C   0  0  0  0  0  3  0  0  0  0  0  0
    1.3474   -0.2694    0.0025 C   0  0  0  0  0  0  0  0  0  0  0  0
    0.8507    1.0095   -0.2730 O   0  0  0  0  0  0  0  0  0  0  0  0
   -1.4381    1.7487    0.4824 C   0  0  0  0  0  0  0  0  0  0  0  0
   -0.9114    0.8457   -1.5593 H   0  0  0  0  0  0  0  0  0  0  0  0
   -1.9678   -1.2660    0.0252 O   0  0  0  0  0  0  0  0  0  0  0  0
    0.7223   -2.2596    0.5067 H   0  0  0  0  0  0  0  0  0  0  0  0
   -1.1926    2.7579    0.1631 H   0  0  0  0  0  0  0  0  0  0  0  0
   -1.1294    1.4628    1.4593 H   0  0  0  0  0  0  0  0  0  0  0  0
   -2.5507    1.5594    0.3921 H   0  0  0  0  0  0  0  0  0  0  0  0
    2.6164   -0.3087    0.1249 O   0  0  0  0  0  0  0  0  0  0  0  0
   -2.0484   -2.2107    0.2559 H   0  0  0  0  0  0  0  0  0  0  0  0
  1  7  1  6  0  0  0
  1  5  1  0  0  0  0
  1  2  1  0  0  0  0
  1  6  1  0  0  0  0
  2  8  1  1  0  0  0
  2  3  1  0  0  0  0
  3  9  1  0  0  0  0
  4 13  2  0  0  0  0
  4  3  1  0  0  0  0
  5  4  1  0  0  0  0
  6 11  1  0  0  0  0
  8 14  1  0  0  0  0
 10  6  1  0  0  0  0
 12  6  1  0  0  0  0
M  END
$$$$
