Compound 052 optimized with r2SCAN-3c
 OpenBabel11072411443D

 16 16  0  0  0  0  0  0  0  0999 V2000
   -0.4467   -1.2943    0.0002 C   0  0  0  0  0  0  0  0  0  0  0  0
   -1.8042   -1.0177   -0.0000 C   0  0  0  0  0  0  0  0  0  0  0  0
   -2.2613    0.3005   -0.0003 C   0  0  0  0  0  0  0  0  0  0  0  0
   -1.3376    1.3367    0.0000 C   0  0  0  0  0  0  0  0  0  0  0  0
    0.0329    1.0783    0.0004 C   0  0  0  0  0  0  0  0  0  0  0  0
    0.4780   -0.2448    0.0002 C   0  0  0  0  0  0  0  0  0  0  0  0
    1.7909   -0.6186   -0.0001 O   0  0  0  0  0  0  0  0  0  0  0  0
    2.7720    0.4128   -0.0003 C   0  0  0  0  0  0  0  0  0  0  0  0
    2.6930    1.0413    0.8971 H   0  0  0  0  0  0  0  0  0  0  0  0
    2.6915    1.0424   -0.8968 H   0  0  0  0  0  0  0  0  0  0  0  0
    3.7378   -0.0954   -0.0014 H   0  0  0  0  0  0  0  0  0  0  0  0
   -0.0763   -2.3147    0.0003 H   0  0  0  0  0  0  0  0  0  0  0  0
   -2.5145   -1.8398   -0.0001 H   0  0  0  0  0  0  0  0  0  0  0  0
   -3.3255    0.5131   -0.0006 H   0  0  0  0  0  0  0  0  0  0  0  0
   -1.6779    2.3685   -0.0001 H   0  0  0  0  0  0  0  0  0  0  0  0
    0.7315    1.9068    0.0009 H   0  0  0  0  0  0  0  0  0  0  0  0
  1  6  1  0  0  0  0
  1 12  1  0  0  0  0
  2  1  2  0  0  0  0
  3  2  1  0  0  0  0
  3  4  2  0  0  0  0
  4  5  1  0  0  0  0
  5 16  1  0  0  0  0
  6  5  2  0  0  0  0
  7  6  1  0  0  0  0
  8  7  1  0  0  0  0
  8  9  1  0  0  0  0
 10  8  1  0  0  0  0
 11  8  1  0  0  0  0
 13  2  1  0  0  0  0
 14  3  1  0  0  0  0
 15  4  1  0  0  0  0
M  END
$$$$
