Compound 053, distorted structure 03
 OpenBabel11072411453D

 16 15  0  0  1  0  0  0  0  0999 V2000
    0.7605   -1.8807    0.0154 C   0  0  0  0  0  0  0  0  0  0  0  0
    0.5986   -0.5079    0.7161 C   0  0  2  0  0  0  0  0  0  0  0  0
   -0.7779    0.0792    0.4869 C   0  0  1  0  0  0  0  0  0  0  0  0
    1.6356    0.3475    0.2066 O   0  0  0  0  0  0  0  0  0  0  0  0
    0.7432   -0.6795    1.7425 H   0  0  0  0  0  0  0  0  0  0  0  0
   -0.8507    1.4972    1.0077 C   0  0  0  0  0  0  0  0  0  0  0  0
   -1.4561   -0.5517    1.1645 H   0  0  0  0  0  0  0  0  0  0  0  0
   -1.1926   -0.0099   -0.8575 O   0  0  0  0  0  0  0  0  0  0  0  0
    0.9078   -1.7814   -1.3961 O   0  0  0  0  0  0  0  0  0  0  0  0
   -0.0576   -2.5210    0.2688 H   0  0  0  0  0  0  0  0  0  0  0  0
    1.6913   -2.3889    0.3955 H   0  0  0  0  0  0  0  0  0  0  0  0
    0.0633   -1.3650   -1.7279 H   0  0  0  0  0  0  0  0  0  0  0  0
   -1.2054    2.4214    0.2642 O   0  0  0  0  0  0  0  0  0  0  0  0
   -0.5058    1.6249    2.0635 H   0  0  0  0  0  0  0  0  0  0  0  0
   -1.4205    0.9536   -1.1349 H   0  0  0  0  0  0  0  0  0  0  0  0
    1.7615    0.0710   -0.7603 H   0  0  0  0  0  0  0  0  0  0  0  0
  1 10  1  0  0  0  0
  1 11  1  0  0  0  0
  1  2  1  0  0  0  0
  2  5  1  1  0  0  0
  3  2  1  0  0  0  0
  3  6  1  0  0  0  0
  3  7  1  1  0  0  0
  4  2  1  0  0  0  0
  6 14  1  0  0  0  0
  8  3  1  0  0  0  0
  9  1  1  0  0  0  0
 12  9  1  0  0  0  0
 13  6  2  0  0  0  0
 15  8  1  0  0  0  0
 16  4  1  0  0  0  0
M  END
$$$$
