Compound 053, distorted structure 01
 OpenBabel11072411453D

 16 15  0  0  1  0  0  0  0  0999 V2000
    0.7501   -1.8977    0.0128 C   0  0  0  0  0  0  0  0  0  0  0  0
    0.6308   -0.5235    0.7012 C   0  0  2  0  0  0  0  0  0  0  0  0
   -0.7797    0.0402    0.4857 C   0  0  1  0  0  0  0  0  0  0  0  0
    1.6076    0.3420    0.1962 O   0  0  0  0  0  0  0  0  0  0  0  0
    0.7943   -0.6367    1.7619 H   0  0  0  0  0  0  0  0  0  0  0  0
   -0.8243    1.4896    0.9780 C   0  0  0  0  0  0  0  0  0  0  0  0
   -1.4813   -0.5085    1.1155 H   0  0  0  0  0  0  0  0  0  0  0  0
   -1.2177   -0.0045   -0.8515 O   0  0  0  0  0  0  0  0  0  0  0  0
    0.8959   -1.7931   -1.3993 O   0  0  0  0  0  0  0  0  0  0  0  0
   -0.1107   -2.5540    0.2942 H   0  0  0  0  0  0  0  0  0  0  0  0
    1.6640   -2.3820    0.3673 H   0  0  0  0  0  0  0  0  0  0  0  0
    0.0967   -1.3545   -1.7071 H   0  0  0  0  0  0  0  0  0  0  0  0
   -1.1878    2.3974    0.2731 O   0  0  0  0  0  0  0  0  0  0  0  0
   -0.4537    1.6412    2.0144 H   0  0  0  0  0  0  0  0  0  0  0  0
   -1.3829    0.9247   -1.1074 H   0  0  0  0  0  0  0  0  0  0  0  0
    1.7729    0.1006   -0.7151 H   0  0  0  0  0  0  0  0  0  0  0  0
  1 10  1  0  0  0  0
  1 11  1  0  0  0  0
  1  2  1  0  0  0  0
  2  5  1  1  0  0  0
  3  2  1  0  0  0  0
  3  6  1  0  0  0  0
  3  7  1  1  0  0  0
  4  2  1  0  0  0  0
  6 14  1  0  0  0  0
  8  3  1  0  0  0  0
  9  1  1  0  0  0  0
 12  9  1  0  0  0  0
 13  6  2  0  0  0  0
 15  8  1  0  0  0  0
 16  4  1  0  0  0  0
M  END
$$$$
