Compound 060, distorted structure 07
 OpenBabel11072411443D

 12 12  0  0  0  0  0  0  0  0999 V2000
    1.8523   -0.0515    0.0577 C   0  0  0  0  0  0  0  0  0  0  0  0
    1.1686   -1.2815   -0.0797 C   0  0  0  0  0  0  0  0  0  0  0  0
   -0.1692   -1.2131   -0.0450 C   0  0  0  0  0  0  0  0  0  0  0  0
   -0.8323   -0.0038    0.0422 C   0  0  0  0  0  0  0  0  0  0  0  0
   -0.2713    1.1552    0.0102 C   0  0  0  0  0  0  0  0  0  0  0  0
    1.1785    1.2644    0.0106 C   0  0  0  0  0  0  0  0  0  0  0  0
   -2.1770    0.0756    0.0477 F   0  0  0  0  0  0  0  0  0  0  0  0
    3.0245   -0.0026    0.0933 H   0  0  0  0  0  0  0  0  0  0  0  0
    1.7474   -2.1051    0.0620 H   0  0  0  0  0  0  0  0  0  0  0  0
   -0.6656   -2.1709    0.0411 H   0  0  0  0  0  0  0  0  0  0  0  0
   -0.7937    2.1772    0.0758 H   0  0  0  0  0  0  0  0  0  0  0  0
    1.8271    2.2091    0.0279 H   0  0  0  0  0  0  0  0  0  0  0  0
  1  8  1  0  0  0  0
  2  3  1  0  0  0  0
  2  1  2  0  0  0  0
  2  9  1  0  0  0  0
  3 10  1  0  0  0  0
  3  4  2  0  0  0  0
  4  7  1  0  0  0  0
  5  6  2  0  0  0  0
  5  4  1  0  0  0  0
  5 11  1  0  0  0  0
  6 12  1  0  0  0  0
  6  1  1  0  0  0  0
M  END
$$$$
