Compound 063, distorted structure 01
 OpenBabel11072411463D

 20 12  0  0  0  0  0  0  0  0999 V2000
   -1.5668    0.8049   -1.2385 C   0  0  0  0  0  3  0  0  0  0  0  0
    0.5484    1.0730   -0.8295 *   0  0  0  0  0  0  0  0  0  0  0  0
   -1.0807    0.5293    0.8511 *   0  0  0  0  0  0  0  0  0  0  0  0
    0.7864    1.5856    1.2735 C   0  0  0  0  0  3  0  0  0  0  0  0
    1.5872   -0.8122   -1.2393 C   0  0  0  0  0  3  0  0  0  0  0  0
    1.0845   -0.5731    0.8362 *   0  0  0  0  0  0  0  0  0  0  0  0
   -0.5350   -1.0498   -0.8470 *   0  0  0  0  0  0  0  0  0  0  0  0
   -0.7980   -1.6001    1.2544 C   0  0  0  0  0  3  0  0  0  0  0  0
   -0.1029   -2.0731    1.9209 H   0  0  0  0  0  0  0  0  0  0  0  0
    0.0836    2.0754    1.9589 H   0  0  0  0  0  0  0  0  0  0  0  0
    1.2748   -1.6087   -1.9545 H   0  0  0  0  0  0  0  0  0  0  0  0
   -2.0518    0.1144   -1.9280 H   0  0  0  0  0  0  0  0  0  0  0  0
   -1.6234   -1.3036    1.9422 H   0  0  0  0  0  0  0  0  0  0  0  0
   -1.2710   -2.4352    0.7056 H   0  0  0  0  0  0  0  0  0  0  0  0
    2.4473   -1.2342   -0.7255 H   0  0  0  0  0  0  0  0  0  0  0  0
    2.0595   -0.0987   -1.9255 H   0  0  0  0  0  0  0  0  0  0  0  0
    1.2412    2.4286    0.7499 H   0  0  0  0  0  0  0  0  0  0  0  0
    1.6193    1.2688    1.9674 H   0  0  0  0  0  0  0  0  0  0  0  0
   -1.2604    1.6524   -1.9326 H   0  0  0  0  0  0  0  0  0  0  0  0
   -2.4468    1.2559   -0.7153 H   0  0  0  0  0  0  0  0  0  0  0  0
  1 20  1  0  0  0  0
  4 10  1  0  0  0  0
  4 18  1  0  0  0  0
  5 15  1  0  0  0  0
  8  9  1  0  0  0  0
  8 13  1  0  0  0  0
 11  5  1  0  0  0  0
 12  1  1  0  0  0  0
 14  8  1  0  0  0  0
 16  5  1  0  0  0  0
 17  4  1  0  0  0  0
 19  1  1  0  0  0  0
M  END
$$$$
