Compound 065, distorted structure 01
 OpenBabel11072411473D

 20 19  0  0  0  0  0  0  0  0999 V2000
    0.6659   -0.3761   -0.1641 N   0  0  0  0  0  4  0  0  0  0  0  0
   -0.7053    0.5225    0.1593 B   0  0  0  0  0  0  0  0  0  0  0  0
    1.5116    0.2282   -1.2273 C   0  0  0  0  0  0  0  0  0  0  0  0
    0.9132    0.2759   -2.1609 H   0  0  0  0  0  0  0  0  0  0  0  0
    2.4120   -0.3402   -1.4081 H   0  0  0  0  0  0  0  0  0  0  0  0
    1.7540    1.2510   -0.9371 H   0  0  0  0  0  0  0  0  0  0  0  0
    1.5051   -0.6132    1.0412 C   0  0  0  0  0  0  0  0  0  0  0  0
    0.3475   -1.2985   -0.5004 H   0  0  0  0  0  0  0  0  0  0  0  0
    1.7461    0.3680    1.4867 H   0  0  0  0  0  0  0  0  0  0  0  0
    2.4077   -1.1500    0.8197 H   0  0  0  0  0  0  0  0  0  0  0  0
    0.9161   -1.1765    1.7751 H   0  0  0  0  0  0  0  0  0  0  0  0
   -1.5428    0.6281   -1.2310 C   0  0  0  0  0  0  0  0  0  0  0  0
   -1.7638   -0.3284   -1.6829 H   0  0  0  0  0  0  0  0  0  0  0  0
   -1.0670    1.2570   -2.0202 H   0  0  0  0  0  0  0  0  0  0  0  0
   -2.5243    1.0937   -1.0314 H   0  0  0  0  0  0  0  0  0  0  0  0
   -1.5504   -0.2862    1.2833 C   0  0  0  0  0  0  0  0  0  0  0  0
   -0.2538    1.5739    0.5456 H   0  0  0  0  0  0  0  0  0  0  0  0
   -2.5252    0.2042    1.4279 H   0  0  0  0  0  0  0  0  0  0  0  0
   -1.0848   -0.3012    2.2828 H   0  0  0  0  0  0  0  0  0  0  0  0
   -1.7696   -1.3389    1.0289 H   0  0  0  0  0  0  0  0  0  0  0  0
  1  2  1  0  0  0  0
  1  7  1  0  0  0  0
  2 17  1  0  0  0  0
  2 16  1  0  0  0  0
  3  6  1  0  0  0  0
  3  1  1  0  0  0  0
  4  3  1  0  0  0  0
  5  3  1  0  0  0  0
  7  9  1  0  0  0  0
  7 11  1  0  0  0  0
  8  1  1  0  0  0  0
 10  7  1  0  0  0  0
 12 15  1  0  0  0  0
 12  2  1  0  0  0  0
 13 12  1  0  0  0  0
 14 12  1  0  0  0  0
 16 18  1  0  0  0  0
 16 19  1  0  0  0  0
 20 16  1  0  0  0  0
M  END
$$$$
