Compound 066, distorted structure 08
 OpenBabel11072411473D

 15 15  0  0  0  0  0  0  0  0999 V2000
   -1.0676   -0.0477    0.0478 N   0  0  0  0  0  0  0  0  0  0  0  0
   -0.7439    1.2697   -0.0631 C   0  0  0  0  0  0  0  0  0  0  0  0
    0.6039    1.2332   -0.0135 C   0  0  0  0  0  0  0  0  0  0  0  0
    0.9686   -0.0685   -0.0644 N   0  0  0  0  0  0  0  0  0  0  0  0
    0.0416   -0.9691    0.0001 C   0  0  0  0  0  2  0  0  0  0  0  0
   -2.4531   -0.5465   -0.0324 C   0  0  0  0  0  0  0  0  0  0  0  0
   -2.4540   -1.7216   -0.0888 H   0  0  0  0  0  0  0  0  0  0  0  0
   -2.9521   -0.1970   -0.8002 H   0  0  0  0  0  0  0  0  0  0  0  0
   -2.9738   -0.1170    0.9111 H   0  0  0  0  0  0  0  0  0  0  0  0
    2.5088   -0.5381    0.0082 C   0  0  0  0  0  0  0  0  0  0  0  0
    2.9508   -0.2659   -0.8914 H   0  0  0  0  0  0  0  0  0  0  0  0
    2.4072   -1.6231   -0.0405 H   0  0  0  0  0  0  0  0  0  0  0  0
    2.9467   -0.2766    0.8746 H   0  0  0  0  0  0  0  0  0  0  0  0
   -1.4719    1.9367   -0.0836 H   0  0  0  0  0  0  0  0  0  0  0  0
    1.3117    2.0606    0.0566 H   0  0  0  0  0  0  0  0  0  0  0  0
  2  3  2  0  0  0  0
  2  1  1  0  0  0  0
  3 15  1  0  0  0  0
  4  3  1  0  0  0  0
  4  5  1  0  0  0  0
  4 10  1  0  0  0  0
  5  1  1  0  0  0  0
  6  1  1  0  0  0  0
  6  9  1  0  0  0  0
  7  6  1  0  0  0  0
  8  6  1  0  0  0  0
 10 13  1  0  0  0  0
 11 10  1  0  0  0  0
 12 10  1  0  0  0  0
 14  2  1  0  0  0  0
M  END
$$$$
