Compound 077, distorted structure 07
 OpenBabel11072411483D

 10  6  0  0  0  0  0  0  0  0999 V2000
   -0.4958    0.1027    0.0412 *   0  0  0  0  0  0  0  0  0  0  0  0
    1.5473   -0.1029    0.0252 *   0  0  0  0  0  0  0  0  0  0  0  0
   -1.3630   -1.7916    0.0618 C   0  0  0  0  0  3  0  0  0  0  0  0
   -1.4208    1.6665    0.0327 C   0  0  0  0  0  3  0  0  0  0  0  0
   -2.0167   -1.8764   -1.0195 H   0  0  0  0  0  0  0  0  0  0  0  0
   -2.1427   -1.7440    0.8235 H   0  0  0  0  0  0  0  0  0  0  0  0
   -0.7575   -2.6429    0.1021 H   0  0  0  0  0  0  0  0  0  0  0  0
   -2.0147    1.8501    0.9812 H   0  0  0  0  0  0  0  0  0  0  0  0
   -2.1567    1.7415   -0.8991 H   0  0  0  0  0  0  0  0  0  0  0  0
   -0.6670    2.6561   -0.1250 H   0  0  0  0  0  0  0  0  0  0  0  0
  3  7  1  0  0  0  0
  3  6  1  0  0  0  0
  4  8  1  0  0  0  0
  5  3  1  0  0  0  0
  9  4  1  0  0  0  0
 10  4  1  0  0  0  0
M  END
$$$$
