Compound 078, distorted structure 06
 OpenBabel11072411483D

 17 13  0  0  0  0  0  0  0  0999 V2000
   -0.9877    0.0450   -0.0527 *   0  0  0  0  0  0  0  0  0  0  0  0
    0.7663    0.7099   -0.0075 C   0  0  0  0  0  2  0  0  0  0  0  0
   -2.4595    1.3349    0.0162 C   0  0  0  0  0  3  0  0  0  0  0  0
   -1.4005   -1.9112    0.0454 C   0  0  0  0  0  3  0  0  0  0  0  0
   -2.0739   -2.2451   -0.7879 H   0  0  0  0  0  0  0  0  0  0  0  0
   -1.7857   -2.2004    0.9271 H   0  0  0  0  0  0  0  0  0  0  0  0
   -0.4854   -2.5645   -0.2420 H   0  0  0  0  0  0  0  0  0  0  0  0
   -2.4087    1.9029    0.9080 H   0  0  0  0  0  0  0  0  0  0  0  0
   -3.4543    0.7948    0.0126 H   0  0  0  0  0  0  0  0  0  0  0  0
   -2.4264    1.9928   -0.8004 H   0  0  0  0  0  0  0  0  0  0  0  0
    1.8778   -0.2101   -0.0335 C   0  0  0  0  0  3  0  0  0  0  0  0
    3.3440    0.1814    0.0104 C   0  0  0  0  0  0  0  0  0  0  0  0
    3.3759    1.3372    0.0299 H   0  0  0  0  0  0  0  0  0  0  0  0
    3.8265   -0.1609   -0.9191 H   0  0  0  0  0  0  0  0  0  0  0  0
    3.8436   -0.1246    0.8714 H   0  0  0  0  0  0  0  0  0  0  0  0
    1.0472    1.6775   -0.0318 H   0  0  0  0  0  0  0  0  0  0  0  0
    1.6892   -1.2008   -0.0390 H   0  0  0  0  0  0  0  0  0  0  0  0
  3  8  1  0  0  0  0
  4  6  1  0  0  0  0
  5  4  1  0  0  0  0
  7  4  1  0  0  0  0
  9  3  1  0  0  0  0
 10  3  1  0  0  0  0
 11  2  1  0  0  0  0
 11 12  1  0  0  0  0
 12 13  1  0  0  0  0
 12 15  1  0  0  0  0
 14 12  1  0  0  0  0
 16  2  1  0  0  0  0
 17 11  1  0  0  0  0
M  END
$$$$
