Compound 083, distorted structure 07
 OpenBabel11072411503D

 14 13  0  0  0  0  0  0  0  0999 V2000
    0.0504   -0.0394    1.6308 O   0  0  0  0  0  0  0  0  0  0  0  0
   -0.0500    0.0534    0.1015 P   0  0  0  0  0  0  0  0  0  0  0  0
    0.4519    1.5259   -0.6027 C   0  0  0  0  0  0  0  0  0  0  0  0
   -1.6084   -0.4244   -0.6533 C   0  0  0  0  0  0  0  0  0  0  0  0
    1.1505   -1.2822   -0.5970 C   0  0  0  0  0  0  0  0  0  0  0  0
   -1.5044   -0.4120   -1.7121 H   0  0  0  0  0  0  0  0  0  0  0  0
   -2.2898    0.2578   -0.2680 H   0  0  0  0  0  0  0  0  0  0  0  0
   -1.8944   -1.4607   -0.2615 H   0  0  0  0  0  0  0  0  0  0  0  0
    0.9546   -2.1469   -0.2695 H   0  0  0  0  0  0  0  0  0  0  0  0
    2.1061   -1.0297   -0.1910 H   0  0  0  0  0  0  0  0  0  0  0  0
    1.0520   -1.1598   -1.6278 H   0  0  0  0  0  0  0  0  0  0  0  0
    1.4185    1.9124   -0.2691 H   0  0  0  0  0  0  0  0  0  0  0  0
   -0.1858    2.3556   -0.2663 H   0  0  0  0  0  0  0  0  0  0  0  0
    0.4112    1.4935   -1.6791 H   0  0  0  0  0  0  0  0  0  0  0  0
  2  1  2  0  0  0  0
  3 12  1  0  0  0  0
  3 13  1  0  0  0  0
  3  2  1  0  0  0  0
  4  7  1  0  0  0  0
  4  8  1  0  0  0  0
  4  2  1  0  0  0  0
  5  9  1  0  0  0  0
  5 10  1  0  0  0  0
  5  2  1  0  0  0  0
  6  4  1  0  0  0  0
 11  5  1  0  0  0  0
 14  3  1  0  0  0  0
M  END
$$$$
