Compound 084, distorted structure 03
 OpenBabel11072411503D

 15 14  0  0  0  0  0  0  0  0999 V2000
   -1.1068    0.5668   -0.4435 P   0  0  0  0  0  0  0  0  0  0  0  0
    0.7647   -0.2137    0.5393 P   0  0  0  0  0  0  0  0  0  0  0  0
   -1.2129    1.7197    0.4359 H   0  0  0  0  0  0  0  0  0  0  0  0
   -2.3829   -0.5401    0.3737 C   0  0  0  0  0  0  0  0  0  0  0  0
    1.9751    1.0764   -0.0845 C   0  0  0  0  0  0  0  0  0  0  0  0
    1.1664   -1.5731   -0.5929 C   0  0  0  0  0  0  0  0  0  0  0  0
   -2.1918   -0.5539    1.4909 H   0  0  0  0  0  0  0  0  0  0  0  0
   -2.3215   -1.5330   -0.0670 H   0  0  0  0  0  0  0  0  0  0  0  0
   -3.3314   -0.1382    0.2026 H   0  0  0  0  0  0  0  0  0  0  0  0
    1.7449    2.0634    0.4772 H   0  0  0  0  0  0  0  0  0  0  0  0
    1.8847    1.2774   -1.1387 H   0  0  0  0  0  0  0  0  0  0  0  0
    2.9589    0.8179    0.1503 H   0  0  0  0  0  0  0  0  0  0  0  0
    2.1074   -2.0018   -0.4273 H   0  0  0  0  0  0  0  0  0  0  0  0
    1.1336   -1.2290   -1.6835 H   0  0  0  0  0  0  0  0  0  0  0  0
    0.4536   -2.4033   -0.4939 H   0  0  0  0  0  0  0  0  0  0  0  0
  1  4  1  0  0  0  0
  1  3  1  0  0  0  0
  1  2  1  0  0  0  0
  4  7  1  0  0  0  0
  5 12  1  0  0  0  0
  5 10  1  0  0  0  0
  5  2  1  0  0  0  0
  6 15  1  0  0  0  0
  6 13  1  0  0  0  0
  6  2  1  0  0  0  0
  8  4  1  0  0  0  0
  9  4  1  0  0  0  0
 11  5  1  0  0  0  0
 14  6  1  0  0  0  0
M  END
$$$$
