Compound 088 optimized with r2SCAN-3c
 OpenBabel11072411493D

 12 11  0  0  0  0  0  0  0  0999 V2000
    2.5143    0.0812    0.0078 C   0  0  0  0  0  0  0  0  0  0  0  0
    1.1054   -0.5138    0.0343 C   0  0  0  0  0  0  0  0  0  0  0  0
    2.6921    0.6412   -0.9170 H   0  0  0  0  0  0  0  0  0  0  0  0
    3.2741   -0.7035    0.0747 H   0  0  0  0  0  0  0  0  0  0  0  0
    2.6675    0.7673    0.8482 H   0  0  0  0  0  0  0  0  0  0  0  0
    0.0396    0.5713   -0.0623 C   0  0  0  0  0  0  0  0  0  0  0  0
    0.9508   -1.0888    0.9545 H   0  0  0  0  0  0  0  0  0  0  0  0
    0.9822   -1.2185   -0.7980 H   0  0  0  0  0  0  0  0  0  0  0  0
    0.1301    1.2733    0.7749 H   0  0  0  0  0  0  0  0  0  0  0  0
   -1.6907   -0.0606    0.0510 S   0  0  0  0  0  0  0  0  0  0  0  0
    0.1485    1.1524   -0.9847 H   0  0  0  0  0  0  0  0  0  0  0  0
   -1.6498   -0.8043   -1.0687 H   0  0  0  0  0  0  0  0  0  0  0  0
  1  2  1  0  0  0  0
  1  4  1  0  0  0  0
  1  5  1  0  0  0  0
  2  7  1  0  0  0  0
  3  1  1  0  0  0  0
  6  2  1  0  0  0  0
  6 10  1  0  0  0  0
  6  9  1  0  0  0  0
  8  2  1  0  0  0  0
 11  6  1  0  0  0  0
 12 10  1  0  0  0  0
M  END
$$$$
