Compound 095, distorted structure 07
 OpenBabel11072411513D

  8  5  0  0  0  0  0  0  0  0999 V2000
   -0.7268    0.5351   -0.9054 C   0  0  0  0  0  3  0  0  0  0  0  0
    0.6873   -0.3283   -0.9878 C   0  0  0  0  0  3  0  0  0  0  0  0
   -1.7173    0.0870    0.5348 *   0  0  0  0  0  0  0  0  0  0  0  0
   -1.0671    0.3549   -1.8850 H   0  0  0  0  0  0  0  0  0  0  0  0
   -0.3885    1.4630   -0.9311 H   0  0  0  0  0  0  0  0  0  0  0  0
    1.5919   -0.0281    0.4473 *   0  0  0  0  0  0  0  0  0  0  0  0
    1.3077   -0.2727   -2.0008 H   0  0  0  0  0  0  0  0  0  0  0  0
    0.3718   -1.5375   -0.9250 H   0  0  0  0  0  0  0  0  0  0  0  0
  2  8  1  0  0  0  0
  2  1  1  0  0  0  0
  4  1  1  0  0  0  0
  5  1  1  0  0  0  0
  7  2  1  0  0  0  0
M  END
$$$$
