Compound 096, distorted structure 04
 OpenBabel11072411513D

  8  5  0  0  0  0  0  0  0  0999 V2000
    0.0214   -0.4028    0.3612 C   0  0  0  0  0  2  0  0  0  0  0  0
   -0.0632   -1.8557   -0.2213 C   0  0  0  0  0  0  0  0  0  0  0  0
   -0.0180   -0.3760    1.5212 H   0  0  0  0  0  0  0  0  0  0  0  0
   -1.4236    0.5627   -0.0674 *   0  0  0  0  0  0  0  0  0  0  0  0
    1.4458    0.4301   -0.0878 *   0  0  0  0  0  0  0  0  0  0  0  0
   -0.8385   -2.4186    0.2448 H   0  0  0  0  0  0  0  0  0  0  0  0
    0.8481   -2.4133    0.2101 H   0  0  0  0  0  0  0  0  0  0  0  0
    0.0483   -1.7788   -1.2256 H   0  0  0  0  0  0  0  0  0  0  0  0
  1  3  1  0  0  0  0
  2  7  1  0  0  0  0
  2  6  1  0  0  0  0
  2  1  1  0  0  0  0
  8  2  1  0  0  0  0
M  END
$$$$
