Compound 097, distorted structure 03
 OpenBabel11072411513D

  9  7  0  0  0  0  0  0  0  0999 V2000
    2.3115    0.3570    0.2692 C   0  0  0  0  0  0  0  0  0  0  0  0
    1.2660    0.0150   -0.4374 C   0  0  0  0  0  0  0  0  0  0  0  0
    0.1157   -0.8760    0.1051 C   0  0  0  0  0  3  0  0  0  0  0  0
   -1.4358    0.1149    0.0262 *   0  0  0  0  0  0  0  0  0  0  0  0
    0.2406   -1.1438    1.1234 H   0  0  0  0  0  0  0  0  0  0  0  0
   -0.1378   -1.7580   -0.4341 H   0  0  0  0  0  0  0  0  0  0  0  0
    3.1016    0.9081   -0.1280 H   0  0  0  0  0  0  0  0  0  0  0  0
    2.2802    0.0668    1.3398 H   0  0  0  0  0  0  0  0  0  0  0  0
    1.2032    0.2400   -1.4332 H   0  0  0  0  0  0  0  0  0  0  0  0
  1  8  1  0  0  0  0
  2  3  1  0  0  0  0
  2  1  2  0  0  0  0
  3  5  1  0  0  0  0
  6  3  1  0  0  0  0
  7  1  1  0  0  0  0
  9  2  1  0  0  0  0
M  END
$$$$
