Compound 097 optimized with r2SCAN-3c
 OpenBabel11072411513D

  9  8  0  0  0  0  0  0  0  0999 V2000
    2.2845    0.3187    0.2637 C   0  0  0  0  0  0  0  0  0  0  0  0
    1.2217   -0.0168   -0.4612 C   0  0  0  0  0  0  0  0  0  0  0  0
    0.0813   -0.7972    0.0821 C   0  0  0  0  0  0  0  0  0  0  0  0
   -1.4657    0.1953    0.0106 Cl  0  0  0  0  0  0  0  0  0  0  0  0
    0.2309   -1.0705    1.1289 H   0  0  0  0  0  0  0  0  0  0  0  0
   -0.1260   -1.6924   -0.5102 H   0  0  0  0  0  0  0  0  0  0  0  0
    3.1127    0.8699   -0.1699 H   0  0  0  0  0  0  0  0  0  0  0  0
    2.3615    0.0517    1.3150 H   0  0  0  0  0  0  0  0  0  0  0  0
    1.1530    0.2706   -1.5090 H   0  0  0  0  0  0  0  0  0  0  0  0
  1  8  1  0  0  0  0
  2  3  1  0  0  0  0
  2  1  2  0  0  0  0
  3  5  1  0  0  0  0
  4  3  1  0  0  0  0
  6  3  1  0  0  0  0
  7  1  1  0  0  0  0
  9  2  1  0  0  0  0
M  END
$$$$
