Compound 097, distorted structure 06
 OpenBabel11072411513D

  9  7  0  0  0  0  0  0  0  0999 V2000
    2.3723    0.2844    0.3854 C   0  0  0  0  0  0  0  0  0  0  0  0
    1.3020    0.0339   -0.3577 C   0  0  0  0  0  0  0  0  0  0  0  0
    0.1378   -0.8037    0.1211 C   0  0  0  0  0  3  0  0  0  0  0  0
   -1.4198    0.2550    0.0239 *   0  0  0  0  0  0  0  0  0  0  0  0
    0.1072   -1.1778    1.1835 H   0  0  0  0  0  0  0  0  0  0  0  0
   -0.1425   -1.8066   -0.4315 H   0  0  0  0  0  0  0  0  0  0  0  0
    3.2072    0.9716   -0.2371 H   0  0  0  0  0  0  0  0  0  0  0  0
    2.4765    0.1320    1.2950 H   0  0  0  0  0  0  0  0  0  0  0  0
    1.2522    0.3781   -1.3934 H   0  0  0  0  0  0  0  0  0  0  0  0
  1  8  1  0  0  0  0
  2  3  1  0  0  0  0
  2  1  2  0  0  0  0
  3  5  1  0  0  0  0
  6  3  1  0  0  0  0
  7  1  1  0  0  0  0
  9  2  1  0  0  0  0
M  END
$$$$
