Compound 100 optimized with r2SCAN-3c
 OpenBabel11072411513D

 11 10  0  0  0  0  0  0  0  0999 V2000
   -0.6079    1.8932   -0.2737 C   0  0  0  0  0  0  0  0  0  0  0  0
   -0.6096    0.4740    0.2453 C   0  0  0  0  0  0  0  0  0  0  0  0
   -1.5548    2.1524   -0.7522 H   0  0  0  0  0  0  0  0  0  0  0  0
    0.1954    2.0201   -1.0080 H   0  0  0  0  0  0  0  0  0  0  0  0
   -0.4383    2.5956    0.5504 H   0  0  0  0  0  0  0  0  0  0  0  0
    0.5808   -0.0696    0.9363 C   0  0  0  0  0  0  0  0  0  0  0  0
    0.4046   -1.0394    1.4023 H   0  0  0  0  0  0  0  0  0  0  0  0
    0.9652    0.6372    1.6751 H   0  0  0  0  0  0  0  0  0  0  0  0
    2.0165   -0.3294   -0.2307 Cl  0  0  0  0  0  0  0  0  0  0  0  0
   -1.6256   -0.3300    0.0108 C   0  0  0  0  0  0  0  0  0  0  0  0
   -2.5385   -1.0298   -0.1710 O   0  0  0  0  0  0  0  0  0  0  0  0
  1  2  1  0  0  0  0
  1  5  1  0  0  0  0
  2  6  1  0  0  0  0
  3  1  1  0  0  0  0
  4  1  1  0  0  0  0
  6  7  1  0  0  0  0
  6  8  1  0  0  0  0
  9  6  1  0  0  0  0
 10  2  2  0  0  0  0
 11 10  2  0  0  0  0
M  END
$$$$
