8
Compound 022, distorted structure 06
C     0.6410524    0.4232109   -0.0411942 
O     1.7068083   -0.0619785   -0.0411299 
C    -0.6579541   -0.3793566    0.0354916 
C    -1.8622902    0.0937699    0.0777906 
H    -2.8047910   -0.3406409    0.0311369 
H    -1.8550570    1.2388732   -0.0359360 
H    -0.4993535   -1.6208252   -0.0774797 
H     0.3649295    1.4399613   -0.0400773 
