8
Compound 022, distorted structure 07
C     0.7227733    0.2668270    0.1283791 
O     1.8462848   -0.1197127   -0.0704545 
C    -0.5848540   -0.5229299   -0.0626296 
C    -1.8902827    0.0378890    0.0170475 
H    -2.6512141   -0.5057175    0.0359047 
H    -1.9930650    1.1928401    0.0755297 
H    -0.4000125   -1.6716657   -0.0676775 
H     0.5339996    1.4728019    0.0307649 
