8
Compound 022, distorted structure 03
C     0.5845865    0.3953719    0.0023477 
O     1.7332029   -0.0656178    0.0187867 
C    -0.6627936   -0.4092293    0.0313628 
C    -1.8642922    0.1807916   -0.0258146 
H    -2.7356258   -0.4643574    0.0243225 
H    -1.9588558    1.1886017    0.0012213 
H    -0.4891842   -1.5033852    0.0199656 
H     0.4190761    1.4432649   -0.0020365 
