Compound 022, distorted structure 02
 OpenBabel12102416353D

  8  7  0  0  0  0  0  0  0  0999 V2000
    0.6006    0.3710   -0.0305 C   0  0  0  0  0  0  0  0  0  0  0  0
    1.7540   -0.0619   -0.0189 O   0  0  0  0  0  0  0  0  0  0  0  0
   -0.6249   -0.4655   -0.0020 C   0  0  0  0  0  0  0  0  0  0  0  0
   -1.8419    0.1545    0.0438 C   0  0  0  0  0  0  0  0  0  0  0  0
   -2.7943   -0.4405    0.0085 H   0  0  0  0  0  0  0  0  0  0  0  0
   -1.9343    1.2207    0.0464 H   0  0  0  0  0  0  0  0  0  0  0  0
   -0.4779   -1.4959    0.0161 H   0  0  0  0  0  0  0  0  0  0  0  0
    0.4434    1.4364   -0.0261 H   0  0  0  0  0  0  0  0  0  0  0  0
  1  8  1  0  0  0  0
  1  2  2  0  0  0  0
  1  3  1  0  0  0  0
  3  7  1  0  0  0  0
  3  4  2  0  0  0  0
  4  6  1  0  0  0  0
  5  4  1  0  0  0  0
M  END
$$$$
