8
Compound 022 optimized with r2SCAN-3c
C     0.5922068    0.3648761   -0.0001237 
O     1.7120275   -0.1013550    0.0001636 
C    -0.6355214   -0.4421912   -0.0001633 
C    -1.8351404    0.1428122    0.0000561 
H    -2.7571868   -0.4296637    0.0002264 
H    -1.9251434    1.2275121    0.0001323 
H    -0.5121076   -1.5229587   -0.0003357 
H     0.4260527    1.4686796   -0.0002722 
