13
Compound 040, distorted structure 03
C    -0.7329505    0.7082830    0.0662192 
C     0.5002808   -0.1358724    0.0643392 
C     0.5162839   -1.4626992   -0.0282777 
H     1.4405530   -1.9959192    0.0380420 
H    -0.3734087   -2.0046320    0.1400229 
C     1.8213741    0.7232217   -0.0424732 
H     1.8547769    1.3034997   -0.9374611 
H     1.8862002    1.3772996    0.8443337 
H     2.7182171    0.0614879   -0.0888006 
H    -0.6491737    1.5687477   -0.6952306 
H    -0.6999922    1.2999803    1.0040573 
O    -1.9657344    0.0047207   -0.0188554 
H    -1.8806912   -0.5039116   -0.8331504 
