Compound 040, distorted structure 07
 OpenBabel12102416353D

 13 12  0  0  0  0  0  0  0  0999 V2000
   -0.6438    0.6535    0.0894 C   0  0  0  0  0  0  0  0  0  0  0  0
    0.5323   -0.0859    0.0274 C   0  0  0  0  0  0  0  0  0  0  0  0
    0.4887   -1.4595    0.0001 C   0  0  0  0  0  0  0  0  0  0  0  0
    1.5088   -2.0399   -0.0314 H   0  0  0  0  0  0  0  0  0  0  0  0
   -0.3467   -1.9092    0.1877 H   0  0  0  0  0  0  0  0  0  0  0  0
    1.8011    0.6997   -0.1183 C   0  0  0  0  0  0  0  0  0  0  0  0
    1.8977    1.2597   -0.9555 H   0  0  0  0  0  0  0  0  0  0  0  0
    1.8699    1.3347    0.7557 H   0  0  0  0  0  0  0  0  0  0  0  0
    2.7039   -0.0454   -0.0857 H   0  0  0  0  0  0  0  0  0  0  0  0
   -0.6417    1.4469   -0.6938 H   0  0  0  0  0  0  0  0  0  0  0  0
   -0.6565    1.2290    1.0408 H   0  0  0  0  0  0  0  0  0  0  0  0
   -1.9792   -0.0407   -0.0588 O   0  0  0  0  0  0  0  0  0  0  0  0
   -1.9875   -0.4067   -0.8594 H   0  0  0  0  0  0  0  0  0  0  0  0
  1 11  1  0  0  0  0
  2  1  1  0  0  0  0
  3  2  2  0  0  0  0
  3  5  1  0  0  0  0
  4  3  1  0  0  0  0
  6  9  1  0  0  0  0
  6  2  1  0  0  0  0
  6  8  1  0  0  0  0
  7  6  1  0  0  0  0
 10  1  1  0  0  0  0
 12  1  1  0  0  0  0
 13 12  1  0  0  0  0
M  END
$$$$
