13
Compound 040, distorted structure 05
C    -0.7686577    0.7750276    0.1178637 
C     0.5321856   -0.0701428    0.0130234 
C     0.4429334   -1.4943371    0.0681945 
H     1.4336669   -2.0587639   -0.0163529 
H    -0.4572645   -1.9885517    0.0562598 
C     1.8813391    0.6496774   -0.0697972 
H     1.8506097    1.3145962   -0.9537778 
H     1.8873134    1.3727691    0.7749964 
H     2.6958998   -0.0397050   -0.0518500 
H    -0.6085385    1.4393434   -0.7634347 
H    -0.7575811    1.2475312    1.0798001 
O    -1.8790949    0.0668054   -0.0464126 
H    -1.9159508   -0.4958847   -0.8011192 
