13
Compound 040, distorted structure 08
C    -0.6268338    0.7124973    0.1063241 
C     0.6365035   -0.2041960    0.0613107 
C     0.5853261   -1.4017743    0.0545417 
H     1.3771825   -1.9970669    0.0584379 
H    -0.3357940   -2.0534739    0.0403049 
C     1.9267704    0.5812230   -0.0033675 
H     1.7773483    1.2207441   -0.9199452 
H     1.9515752    1.3051790    0.6957291 
H     2.7137017   -0.0430455   -0.0477103 
H    -0.5496071    1.4484899   -0.6619108 
H    -0.6848411    1.1966610    1.0790048 
O    -1.9679656   -0.0592659   -0.0191018 
H    -1.8863472   -0.3735515   -0.9169380 
