17
Compound 069, distorted structure 07
N     1.5868053    1.0954954   -0.0178412 
C     0.8336264    1.1609361   -1.0928712 
H     1.3545164    1.0455100   -2.0704873 
C    -0.4959877    1.2072847   -1.1618915 
H    -1.1284392    1.3275446   -2.0856057 
C    -1.2620148    1.2900852    0.0444828 
H    -2.3674335    1.4460828   -0.0260950 
C    -0.6058127    1.2459519    1.1682127 
H    -1.1346737    1.2433923    2.1602021 
C     0.8232535    1.1423556    1.1147566 
H     1.4112808    1.0781015    2.0859194 
C     0.1483796   -2.2049899    0.6340361 
H     1.1386632   -2.0039688    1.2295400 
H    -0.7952658   -2.3887566    1.2936682 
C     0.1770729   -2.3121840   -0.5922858 
H     1.0154508   -2.0055990   -1.2731837 
H    -0.6686378   -2.3531572   -1.1639920 
