17
Compound 069 optimized with r2SCAN-3c
N     1.5165866    1.1251931   -0.0007659 
C     0.8199262    1.1660695   -1.1404257 
H     1.4022164    1.1280932   -2.0610793 
C    -0.5680723    1.2539277   -1.1936654 
H    -1.0778457    1.2838470   -2.1521056 
C    -1.2760541    1.3018945    0.0003930 
H    -2.3603582    1.3697806    0.0008376 
C    -0.5670085    1.2552840    1.1938851 
H    -1.0759203    1.2864278    2.1527616 
C     0.8209633    1.1673668    1.1394920 
H     1.4040929    1.1303897    2.0596719 
C     0.1589909   -2.2491025    0.6634953 
H     1.0680581   -2.0721904    1.2315124 
H    -0.7512015   -2.4197234    1.2324132 
C     0.1610461   -2.2461841   -0.6631982 
H     1.0719163   -2.0667994   -1.2275063 
H    -0.7473361   -2.4142738   -1.2357157 
