Compound 069, distorted structure 02
 OpenBabel12102416353D

 17 16  0  0  0  0  0  0  0  0999 V2000
    1.5218    1.1470    0.0195 N   0  0  0  0  0  4  0  0  0  0  0  0
    0.7976    1.1835   -1.1582 C   0  0  0  0  0  0  0  0  0  0  0  0
    1.4184    1.1448   -2.0818 H   0  0  0  0  0  0  0  0  0  0  0  0
   -0.5552    1.2501   -1.1769 C   0  0  0  0  0  0  0  0  0  0  0  0
   -1.0924    1.2609   -2.1413 H   0  0  0  0  0  0  0  0  0  0  0  0
   -1.2737    1.3015    0.0170 C   0  0  0  0  0  0  0  0  0  0  0  0
   -2.3616    1.3774    0.0018 H   0  0  0  0  0  0  0  0  0  0  0  0
   -0.5868    1.2749    1.2110 C   0  0  0  0  0  3  0  0  0  0  0  0
   -1.0587    1.2798    2.1311 H   0  0  0  0  0  0  0  0  0  0  0  0
    0.8112    1.1682    1.1448 C   0  0  0  0  0  0  0  0  0  0  0  0
    1.3928    1.1131    2.0550 H   0  0  0  0  0  0  0  0  0  0  0  0
    0.1797   -2.2428    0.6592 C   0  0  0  0  0  0  0  0  0  0  0  0
    1.0835   -2.0591    1.2367 H   0  0  0  0  0  0  0  0  0  0  0  0
   -0.7371   -2.4292    1.2096 H   0  0  0  0  0  0  0  0  0  0  0  0
    0.1748   -2.2379   -0.6496 C   0  0  0  0  0  0  0  0  0  0  0  0
    1.0786   -2.0772   -1.2140 H   0  0  0  0  0  0  0  0  0  0  0  0
   -0.7689   -2.4105   -1.2378 H   0  0  0  0  0  0  0  0  0  0  0  0
  1 10  2  0  0  0  0
  2  1  2  0  0  0  0
  3  2  1  0  0  0  0
  4  2  1  0  0  0  0
  4  6  2  0  0  0  0
  5  4  1  0  0  0  0
  6  8  1  0  0  0  0
  7  6  1  0  0  0  0
  8  9  1  0  0  0  0
 10  8  1  0  0  0  0
 10 11  1  0  0  0  0
 12 14  1  0  0  0  0
 12 13  1  0  0  0  0
 15 12  2  0  0  0  0
 16 15  1  0  0  0  0
 17 15  1  0  0  0  0
M  END
$$$$
