17
Compound 069, distorted structure 01
N     1.5194910    1.1188010    0.0098395 
C     0.8060664    1.1670590   -1.1279240 
H     1.4099420    1.1147062   -2.0693014 
C    -0.5601977    1.2677269   -1.2002956 
H    -1.0733436    1.2748862   -2.1651094 
C    -1.2773467    1.2933583    0.0008777 
H    -2.3680762    1.3733625   -0.0126606 
C    -0.5663644    1.2637582    1.1864194 
H    -1.0672429    1.2890056    2.1391973 
C     0.8163491    1.1811920    1.1280885 
H     1.3903845    1.1231446    2.0496346 
C     0.1548550   -2.2617083    0.6693303 
H     1.0748968   -2.0781689    1.2185064 
H    -0.7374002   -2.4269610    1.2362933 
C     0.1603803   -2.2415159   -0.6764945 
H     1.0820374   -2.0599049   -1.2254937 
H    -0.7504805   -2.4270851   -1.2483206 
