17
Compound 069, distorted structure 08
N     1.5389908    1.1658995    0.0052636 
C     0.8670864    1.1139183   -1.1721918 
H     1.3618404    1.1604262   -2.0693875 
C    -0.5571831    1.2759246   -1.1981735 
H    -1.0102212    1.3434311   -2.1595181 
C    -1.2412351    1.2972079    0.0459891 
H    -2.2997957    1.3207440    0.0099670 
C    -0.6327935    1.2435910    1.2348481 
H    -1.1380212    1.3358694    2.1202421 
C     0.8527820    1.1415087    1.1901523 
H     1.4109107    1.1690512    2.0454773 
C     0.1036064   -2.1879316    0.7264159 
H     1.0485277   -2.0575529    1.1854198 
H    -0.7389715   -2.4256665    1.1938325 
C     0.1397873   -2.2544214   -0.7323572 
H     1.0979087   -2.0978586   -1.1689599 
H    -0.6989273   -2.4498402   -1.2062449 
