17
Compound 069, distorted structure 03
N     1.4929578    1.0980653   -0.0143661 
C     0.8077756    1.1792764   -1.1213729 
H     1.3734429    1.1228101   -2.0448420 
C    -0.5407679    1.2682634   -1.1919337 
H    -1.1044668    1.2565573   -2.1474895 
C    -1.2895164    1.2990212    0.0172819 
H    -2.3575164    1.3427322    0.0174080 
C    -0.5737158    1.2621861    1.1690371 
H    -1.0958101    1.2779910    2.1811689 
C     0.8466749    1.1594446    1.1655039 
H     1.4323623    1.1469425    2.0733553 
C     0.1587362   -2.2282041    0.6929979 
H     1.0418395   -2.0636563    1.2583546 
H    -0.7682016   -2.4282953    1.2264918 
C     0.1341094   -2.2640437   -0.6327642 
H     1.0705910   -2.0857104   -1.2520631 
H    -0.7295213   -2.3862734   -1.2145543 
