10
Compound 058, distorted structure 04
C     1.6203218   -0.6039276    0.2899839 
C     0.3638119   -0.4477697   -0.3779360 
C    -0.9080322   -0.2137930    0.5510496 
H    -0.5678225    0.3668457    1.4705816 
H    -1.4213894   -1.1421398    0.6510487 
F    -1.8775971    0.6646430   -0.1947180 
O     1.2529988    0.6472692   -0.3503834 
H     2.4142651   -1.1429717   -0.3005869 
H     1.7317284   -0.6669547    1.3928736 
H     0.1744033   -0.7278685   -1.3283207 
