10
Compound 058, distorted structure 09
C     1.5291387   -0.6782607    0.2633780 
C     0.4039132   -0.3060941   -0.2572877 
C    -0.8379629   -0.2260571    0.5007246 
H    -0.5301116    0.3583984    1.3191132 
H    -1.4068409   -1.0711815    0.7217803 
F    -1.7206160    0.7182256   -0.1114533 
O     1.3869835    0.7621831   -0.2206874 
H     2.3921541   -1.2106123   -0.2269884 
H     1.6366588   -0.6658187    1.4741721 
H     0.0186446   -0.8671368   -1.4034323 
