10
Compound 058, distorted structure 08
C     1.6229874   -0.7030203    0.3580284 
C     0.3838366   -0.4328775   -0.3014477 
C    -1.0151215   -0.2306157    0.4013160 
H    -0.6643355    0.2516539    1.5036969 
H    -1.3028683   -1.0470111    0.6791610 
F    -1.8421502    0.6136388   -0.2795299 
O     1.3837374    0.6350984   -0.2352250 
H     2.2545419   -1.2964558   -0.3137142 
H     1.6408307   -0.5933418    1.4434701 
H     0.0560894   -0.7997361   -1.3834486 
