10
Compound 058, distorted structure 05
C     1.5856537   -0.5536784    0.2588200 
C     0.3157735   -0.3505391   -0.3207685 
C    -0.9662934   -0.0889009    0.4613403 
H    -0.6599181    0.3114197    1.4155408 
H    -1.3664289   -1.1809119    0.8103959 
F    -1.8384348    0.6443652   -0.1658473 
O     1.3697204    0.6552791   -0.2836295 
H     2.2787810   -1.1568865   -0.2306040 
H     1.6319136   -0.6178993    1.2786502 
H     0.0363236   -0.8328094   -1.2420589 
