10
Compound 058, distorted structure 01
C     1.6401543   -0.6061166    0.2683021 
C     0.3385500   -0.3602565   -0.3328928 
C    -0.8928043   -0.1649489    0.4857526 
H    -0.6473768    0.3406973    1.4250569 
H    -1.3734159   -1.1171450    0.7431430 
F    -1.8110833    0.6326715   -0.1727631 
O     1.3048536    0.6904006   -0.2685878 
H     2.3721231   -1.1879986   -0.2130864 
H     1.6825823   -0.6179780    1.3647967 
H     0.1428321   -0.7548480   -1.3257294 
