10
Compound 058 optimized with r2SCAN-3c
C     1.6149580   -0.6122623    0.2919311 
C     0.3144395   -0.3701172   -0.3410226 
C    -0.9011492   -0.1719732    0.5035757 
H    -0.6389551    0.3426582    1.4360932 
H    -1.3815253   -1.1347655    0.7254335 
F    -1.8324928    0.6154842   -0.1821728 
O     1.3061183    0.6619168   -0.2793657 
H     2.3649042   -1.1964014   -0.2411702 
H     1.6891502   -0.6260809    1.3806852 
H     0.1342883   -0.7631152   -1.3442820 
