16
Compound 051, distorted structure 02
C    -0.0230114    0.5435448   -0.4452599 
O     1.0589192    0.3713266    0.4717403 
C     2.0556201   -0.5091890   -0.0200668 
H     2.4556579   -0.1316006   -1.0237340 
H     1.6808706   -1.5107869   -0.1793974 
H     2.8532511   -0.5017769    0.7035699 
O    -0.7551135   -0.6669963   -0.6491679 
H     0.3397006    0.8412159   -1.4455901 
C    -0.9012344    1.6576888    0.1660287 
C    -1.3748918   -1.2423416    0.4636012 
H    -2.2780579   -0.7070915    0.7493588 
H    -0.6836316   -1.3005672    1.3144422 
H    -1.6512152   -2.2595859    0.1769463 
H    -0.3600735    2.5915683    0.1394561 
H    -1.1722653    1.4155471    1.1626168 
H    -1.8401459    1.7646552   -0.4435244 
