16
Compound 051, distorted structure 01
C    -0.0322256    0.5515901   -0.4212344 
O     1.0516011    0.3727532    0.4461213 
C     2.0566658   -0.5095345   -0.0366052 
H     2.4425207   -0.1650866   -1.0125721 
H     1.6453955   -1.5369485   -0.1513967 
H     2.8479529   -0.5249818    0.7141473 
O    -0.7293788   -0.6781228   -0.6607384 
H     0.3453710    0.8196636   -1.4447066 
C    -0.9021277    1.6565452    0.1300296 
C    -1.3681551   -1.2293861    0.4852051 
H    -2.2919492   -0.6936816    0.7609601 
H    -0.7085333   -1.2813631    1.3292116 
H    -1.6463776   -2.2483538    0.1927167 
H    -0.3652104    2.5813111    0.1382894 
H    -1.1791539    1.4410211    1.1873850 
H    -1.8151061    1.7558961   -0.4418893 
