16
Compound 051, distorted structure 03
C    -0.0702424    0.5617352   -0.4642858 
O     1.0569178    0.3915456    0.4466886 
C     2.0476178   -0.4905284   -0.0432017 
H     2.4691987   -0.1860412   -0.9631140 
H     1.6342140   -1.5640009   -0.1693863 
H     2.8516894   -0.5042792    0.7095366 
O    -0.7116156   -0.6328430   -0.6440077 
H     0.3084853    0.8231285   -1.4257203 
C    -0.8855323    1.6593630    0.1229540 
C    -1.4121306   -1.2205317    0.4514876 
H    -2.2541287   -0.6912775    0.7526824 
H    -0.6719134   -1.2885533    1.2985266 
H    -1.6996711   -2.2346391    0.1936582 
H    -0.3582870    2.5590459    0.1542465 
H    -1.1900548    1.4426669    1.1513950 
H    -1.7878969    1.7646684   -0.4459486 
