Compound 051, distorted structure 07
 OpenBabel12102416353D

 16 15  0  0  0  0  0  0  0  0999 V2000
   -0.0874    0.5806   -0.5078 C   0  0  0  0  0  0  0  0  0  0  0  0
    1.0206    0.3475    0.4524 O   0  0  0  0  0  0  0  0  0  0  0  0
    2.1165   -0.4940    0.0056 C   0  0  0  0  0  0  0  0  0  0  0  0
    2.4699   -0.2329   -1.0668 H   0  0  0  0  0  0  0  0  0  0  0  0
    1.5729   -1.4731   -0.1679 H   0  0  0  0  0  0  0  0  0  0  0  0
    2.8942   -0.4963    0.6602 H   0  0  0  0  0  0  0  0  0  0  0  0
   -0.8058   -0.7148   -0.5995 O   0  0  0  0  0  0  0  0  0  0  0  0
    0.3515    0.7567   -1.5132 H   0  0  0  0  0  0  0  0  0  0  0  0
   -0.8756    1.5678    0.0684 C   0  0  0  0  0  0  0  0  0  0  0  0
   -1.3671   -1.2696    0.4740 C   0  0  0  0  0  0  0  0  0  0  0  0
   -2.1930   -0.6382    0.7730 H   0  0  0  0  0  0  0  0  0  0  0  0
   -0.7314   -1.2575    1.3752 H   0  0  0  0  0  0  0  0  0  0  0  0
   -1.6982   -2.2874    0.2638 H   0  0  0  0  0  0  0  0  0  0  0  0
   -0.3358    2.5464    0.1561 H   0  0  0  0  0  0  0  0  0  0  0  0
   -1.1653    1.4565    1.2014 H   0  0  0  0  0  0  0  0  0  0  0  0
   -1.8498    1.6723   -0.3660 H   0  0  0  0  0  0  0  0  0  0  0  0
  1  9  1  0  0  0  0
  1  2  1  0  0  0  0
  3  2  1  0  0  0  0
  3  6  1  0  0  0  0
  4  3  1  0  0  0  0
  5  3  1  0  0  0  0
  7  1  1  0  0  0  0
  7 10  1  0  0  0  0
  8  1  1  0  0  0  0
  9 14  1  0  0  0  0
  9 15  1  0  0  0  0
 10 11  1  0  0  0  0
 10 12  1  0  0  0  0
 13 10  1  0  0  0  0
 16  9  1  0  0  0  0
M  END
$$$$
