16
Compound 051, distorted structure 04
C    -0.0886334    0.5587616   -0.3830764 
O     1.0732214    0.3357441    0.4758470 
C     2.0747622   -0.4935675   -0.0412393 
H     2.4037788   -0.1821476   -1.0482488 
H     1.6761353   -1.5613041   -0.1961832 
H     2.8757583   -0.4652642    0.7266136 
O    -0.7734033   -0.6968762   -0.6398284 
H     0.3764552    0.8491632   -1.4342032 
C    -0.8723864    1.6793701    0.1236911 
C    -1.3971789   -1.2646727    0.4945987 
H    -2.3093376   -0.6600640    0.7917052 
H    -0.7280770   -1.2614691    1.2984029 
H    -1.6399640   -2.2453422    0.1870002 
H    -0.3500255    2.6251157    0.1551041 
H    -1.1987128    1.3879598    1.1986373 
H    -1.7812406    1.7470128   -0.4787763 
