Compound 051, distorted structure 09
 OpenBabel12102416353D

 16 15  0  0  0  0  0  0  0  0999 V2000
   -0.0574    0.4837   -0.5266 C   0  0  0  0  0  0  0  0  0  0  0  0
    1.1489    0.3329    0.4952 O   0  0  0  0  0  0  0  0  0  0  0  0
    1.9729   -0.6069   -0.0308 C   0  0  0  0  0  0  0  0  0  0  0  0
    2.4560   -0.0624   -0.9984 H   0  0  0  0  0  0  0  0  0  0  0  0
    1.5695   -1.6154   -0.2030 H   0  0  0  0  0  0  0  0  0  0  0  0
    2.7860   -0.6221    0.6768 H   0  0  0  0  0  0  0  0  0  0  0  0
   -0.7769   -0.7124   -0.6027 O   0  0  0  0  0  0  0  0  0  0  0  0
    0.2743    0.8493   -1.4076 H   0  0  0  0  0  0  0  0  0  0  0  0
   -0.8592    1.5469    0.1568 C   0  0  0  0  0  0  0  0  0  0  0  0
   -1.4553   -1.1457    0.4609 C   0  0  0  0  0  0  0  0  0  0  0  0
   -2.2809   -0.7229    0.7605 H   0  0  0  0  0  0  0  0  0  0  0  0
   -0.7464   -1.2498    1.3538 H   0  0  0  0  0  0  0  0  0  0  0  0
   -1.7259   -2.1799    0.1662 H   0  0  0  0  0  0  0  0  0  0  0  0
   -0.3643    2.6312    0.2213 H   0  0  0  0  0  0  0  0  0  0  0  0
   -1.1949    1.4725    1.2650 H   0  0  0  0  0  0  0  0  0  0  0  0
   -1.7873    1.7814   -0.5151 H   0  0  0  0  0  0  0  0  0  0  0  0
  1  9  1  0  0  0  0
  1  2  1  0  0  0  0
  3  2  1  0  0  0  0
  3  6  1  0  0  0  0
  4  3  1  0  0  0  0
  5  3  1  0  0  0  0
  7  1  1  0  0  0  0
  7 10  1  0  0  0  0
  8  1  1  0  0  0  0
  9 14  1  0  0  0  0
  9 15  1  0  0  0  0
 10 11  1  0  0  0  0
 10 12  1  0  0  0  0
 13 10  1  0  0  0  0
 16  9  1  0  0  0  0
M  END
$$$$
