16
Compound 051 optimized with r2SCAN-3c
C    -0.0440262    0.5443111   -0.4301140 
O     1.0407879    0.3764367    0.4600320 
C     2.0440192   -0.5077523   -0.0349222 
H     2.4389938   -0.1552667   -0.9999291 
H     1.6574861   -1.5268464   -0.1624922 
H     2.8494855   -0.5114160    0.7030458 
O    -0.7349694   -0.6716581   -0.6723902 
H     0.3324136    0.8173739   -1.4305080 
C    -0.9149666    1.6462434    0.1419244 
C    -1.3733797   -1.2394838    0.4712773 
H    -2.2791666   -0.6834525    0.7501334 
H    -0.6948285   -1.2814995    1.3332375 
H    -1.6593311   -2.2553211    0.1880642 
H    -0.3659928    2.5911715    0.1267398 
H    -1.1859332    1.4299579    1.1789718 
H    -1.8240054    1.7519165   -0.4567404 
