15
Compound 076, distorted structure 09
MG    1.0511367   -0.2632727    0.3218313 
C     2.8612156    0.5667078    0.4849780 
C    -0.9403739   -1.3103102    0.3233912 
H     3.5086491    0.6714295   -0.5460652 
H     3.5621274   -0.0001320    0.9595839 
H     2.8575966    1.5883035    0.9487298 
C    -1.8637917   -0.1462918   -0.1912593 
H    -1.1497662   -1.5718606    1.3699812 
H    -0.8899160   -2.2696703   -0.1392700 
H    -1.7781650   -0.1342504   -1.3459545 
C    -1.8767261    1.1415621    0.3800580 
H    -3.0051770   -0.7208759   -0.0049831 
H    -1.0458145    1.6567005    0.4044926 
H    -2.0680045    0.8993926    1.4954921 
H    -2.7918837    1.8411160    0.1168018 
