15
Compound 076, distorted structure 08
MG    1.1227804   -0.2904937    0.4043597 
C     2.8848335    0.4470760    0.4275239 
C    -0.9424069   -1.1387092    0.4239473 
H     3.4557869    0.5155625   -0.4902800 
H     3.6549569   -0.0619489    1.0768591 
H     2.9769989    1.5568598    0.7752200 
C    -1.8917043   -0.1758055   -0.1915611 
H    -1.0988182   -1.5730068    1.3938327 
H    -0.9329768   -2.1282278   -0.2840963 
H    -1.8773508   -0.0825341   -1.2864016 
C    -2.0013511    1.1936433    0.4409267 
H    -2.9599187   -0.7063652   -0.0463310 
H    -1.0104920    1.5850014    0.4055548 
H    -2.0044111    0.9624332    1.6175463 
H    -2.7873180    1.7008311    0.2028672 
