15
Compound 076, distorted structure 01
MG    1.0542300   -0.3642618    0.4176005 
C     2.9346949    0.5269972    0.4235988 
C    -0.8835081   -1.2082395    0.3648052 
H     3.3912869    0.5705705   -0.5903446 
H     3.6751192   -0.0513750    1.0408918 
H     2.9263778    1.5523788    0.8215984 
C    -1.9584241   -0.2760895   -0.1737278 
H    -1.1706128   -1.4810743    1.3941027 
H    -0.9002026   -2.1576974   -0.2121413 
H    -1.7991843   -0.1371798   -1.2697523 
C    -1.9423099    1.1065946    0.5080683 
H    -2.9666273   -0.6752451   -0.0651705 
H    -0.9741582    1.6315989    0.3141103 
H    -2.0576902    0.9932274    1.5885623 
H    -2.7016962    1.7831471    0.1452147 
