15
Compound 076, distorted structure 03
MG    1.0271226   -0.3953018    0.4323935 
C     2.9259039    0.5247199    0.4651795 
C    -0.8558768   -1.2098823    0.3690562 
H     3.4158652    0.5972207   -0.5891597 
H     3.6297497    0.0030788    1.0522569 
H     2.9308602    1.5415259    0.8131970 
C    -1.9373622   -0.2264373   -0.1929135 
H    -1.1843738   -1.4669293    1.3631933 
H    -0.8711580   -2.1458081   -0.1871706 
H    -1.8210821   -0.0936038   -1.2977171 
C    -1.9120172    1.0709341    0.4992875 
H    -2.9873232   -0.7144703   -0.0589659 
H    -0.9375657    1.6189162    0.3581439 
H    -2.0486060    1.0279159    1.5399142 
H    -2.7539005    1.7631837    0.1416783 
