15
Compound 076, distorted structure 02
MG    1.0309238   -0.3776350    0.3858558 
C     2.9563974    0.5181963    0.4240531 
C    -0.8714576   -1.2456891    0.3560141 
H     3.3988422    0.5744429   -0.5595492 
H     3.6893830   -0.0542949    1.0721178 
H     2.9439491    1.5306446    0.8466547 
C    -1.9499298   -0.2578816   -0.1754028 
H    -1.1826419   -1.4832952    1.3974956 
H    -0.8817666   -2.1462098   -0.1873065 
H    -1.8238438   -0.1240991   -1.2539011 
C    -1.9103971    1.1279834    0.5166865 
H    -2.9398913   -0.6774661   -0.0807721 
H    -0.9941486    1.6372879    0.3102627 
H    -2.0538907    1.0246690    1.5672816 
H    -2.7158588    1.7807745    0.1634454 
