14
Compound 045, distorted structure 07
C     0.7891288   -0.7303013    0.4423310 
C     0.6813282    0.6986824    0.3819737 
C    -0.6722190    1.2089736    0.2429623 
C    -1.3548189   -0.0409322   -0.4557773 
H    -0.7570653    2.0707836   -0.5305453 
H    -1.0600943    1.5162376    1.0941202 
C    -0.6125156   -1.2161997    0.1310224 
H    -1.2839479   -0.0679085   -1.4553486 
H    -2.5503513   -0.0608428   -0.1907382 
H    -0.6943506   -2.0306579   -0.5203802 
H    -1.0944495   -1.4947135    1.1488090 
O     1.1933159   -0.0483050   -0.7412304 
H     1.4436078   -1.3920684    0.9968077 
H     1.4778787    1.3972693    0.9173716 
