9
Compound 024, distorted structure 08
C     1.2444018   -0.2681017    0.0893476 
H     1.2960124   -0.8989634   -0.9436857 
C     0.1144881    0.6568834    0.0146543 
H    -0.1149082    1.0878896   -1.0949277 
O    -1.0841663   -0.3889594   -0.0823282 
H    -1.8100611    0.2702706   -0.0812743 
H     0.0845012    1.3238290    0.7475834 
H     1.1783756   -0.9384014    1.0595523 
H     2.1210458    0.3377696   -0.0604353 
