9
Compound 024, distorted structure 06
C     1.3135109   -0.2332532   -0.0040922 
H     1.2202898   -1.0724049   -0.8541324 
C    -0.0550844    0.6027594   -0.0412771 
H     0.0449446    1.1234558   -0.9247289 
O    -1.1946979   -0.2731122    0.0592341 
H    -1.9119050    0.2264842    0.0157791 
H     0.0646853    1.2575786    0.8542056 
H     1.3250154   -0.7867812    0.9347379 
H     2.1706790    0.2867867   -0.1017137 
