9
Compound 024, distorted structure 03
C     1.2733441   -0.2754308    0.0454638 
H     1.2893740   -0.9936781   -0.8170478 
C     0.0506769    0.5662040   -0.0668241 
H    -0.0008878    1.1470522   -0.9579812 
O    -1.1438402   -0.2946655    0.0715609 
H    -1.9332952    0.2490603   -0.0053573 
H     0.0053811    1.2983800    0.8215467 
H     1.2446276   -0.8069115    0.9037580 
H     2.1521146    0.3286705   -0.0403006 
