Compound 024, distorted structure 01
 OpenBabel12102416353D

  9  8  0  0  0  0  0  0  0  0999 V2000
    1.2265   -0.2678    0.0078 C   0  0  0  0  0  0  0  0  0  0  0  0
    1.2324   -0.9795   -0.8052 H   0  0  0  0  0  0  0  0  0  0  0  0
   -0.0156    0.5610   -0.0665 C   0  0  0  0  0  0  0  0  0  0  0  0
   -0.0042    1.1452   -0.9983 H   0  0  0  0  0  0  0  0  0  0  0  0
   -1.1208   -0.2970    0.0472 O   0  0  0  0  0  0  0  0  0  0  0  0
   -1.9073    0.2282    0.0004 H   0  0  0  0  0  0  0  0  0  0  0  0
   -0.0095    1.2796    0.7793 H   0  0  0  0  0  0  0  0  0  0  0  0
    1.2665   -0.8740    0.9307 H   0  0  0  0  0  0  0  0  0  0  0  0
    2.1715    0.3154   -0.0403 H   0  0  0  0  0  0  0  0  0  0  0  0
  1  8  1  0  0  0  0
  2  1  1  0  0  0  0
  3  1  1  0  0  0  0
  3  5  1  0  0  0  0
  3  7  1  0  0  0  0
  4  3  1  0  0  0  0
  6  5  1  0  0  0  0
  9  1  1  0  0  0  0
M  END
$$$$
