9
Compound 024 optimized with r2SCAN-3c
C     1.2511837   -0.2878950    0.0038824 
H     1.2562974   -1.0021737   -0.8249389 
C     0.0081858    0.5745870   -0.0499328 
H    -0.0166965    1.1446350   -0.9928131 
O    -1.1270577   -0.2941136    0.0439391 
H    -1.9238364    0.2449060    0.0113477 
H     0.0127994    1.2976877    0.7817379 
H     1.2853357   -0.8500651    0.9419589 
H     2.1502461    0.3327062   -0.0642970 
