9
Compound 024, distorted structure 01
C     1.2264998   -0.2678446    0.0077599 
H     1.2323886   -0.9795226   -0.8052150 
C    -0.0155615    0.5609640   -0.0665328 
H    -0.0041829    1.1452418   -0.9982637 
O    -1.1208247   -0.2969556    0.0471596 
H    -1.9073352    0.2281783    0.0004014 
H    -0.0095450    1.2796350    0.7792539 
H     1.2664683   -0.8739569    0.9307433 
H     2.1715209    0.3153976   -0.0402748 
