9
Compound 024, distorted structure 05
C     1.2065630   -0.3377880    0.0114883 
H     1.3097236   -1.0495549   -0.8115987 
C    -0.0280810    0.6259493   -0.1081483 
H    -0.0183855    1.2005558   -0.9716391 
O    -1.0895730   -0.3124551    0.0203928 
H    -1.9117373    0.2991665   -0.0202612 
H     0.0548914    1.2820724    0.7667083 
H     1.3071427   -0.8993914    0.9508293 
H     2.1810969    0.3572114   -0.0896605 
