Compound 024, distorted structure 05
 OpenBabel12102416353D

  9  8  0  0  0  0  0  0  0  0999 V2000
    1.2066   -0.3378    0.0115 C   0  0  0  0  0  0  0  0  0  0  0  0
    1.3097   -1.0496   -0.8116 H   0  0  0  0  0  0  0  0  0  0  0  0
   -0.0281    0.6259   -0.1081 C   0  0  0  0  0  0  0  0  0  0  0  0
   -0.0184    1.2006   -0.9716 H   0  0  0  0  0  0  0  0  0  0  0  0
   -1.0896   -0.3125    0.0204 O   0  0  0  0  0  0  0  0  0  0  0  0
   -1.9117    0.2992   -0.0203 H   0  0  0  0  0  0  0  0  0  0  0  0
    0.0549    1.2821    0.7667 H   0  0  0  0  0  0  0  0  0  0  0  0
    1.3071   -0.8994    0.9508 H   0  0  0  0  0  0  0  0  0  0  0  0
    2.1811    0.3572   -0.0897 H   0  0  0  0  0  0  0  0  0  0  0  0
  1  8  1  0  0  0  0
  2  1  1  0  0  0  0
  3  1  1  0  0  0  0
  3  5  1  0  0  0  0
  3  7  1  0  0  0  0
  4  3  1  0  0  0  0
  6  5  1  0  0  0  0
  9  1  1  0  0  0  0
M  END
$$$$
