12
Compound 075, distorted structure 06
MG   -0.5710647    0.0175509    0.0666325 
C     1.5907373   -0.0507511    0.3003133 
CL   -2.6550715    0.1124651   -0.2928199 
C     2.2595406    1.2903636   -0.1971364 
C     2.2616179   -1.2546369   -0.3564904 
H     1.8213208   -0.1765547    1.4811882 
H     3.3816854   -1.3121862   -0.1004479 
H     2.0575622   -1.3162594   -1.3602404 
H     1.7592890   -2.2531023    0.0161218 
H     2.2932450    1.3586686   -1.1788661 
H     3.3239649    1.2610387    0.1458128 
H     1.9371238    2.1042507    0.4220132 
