12
Compound 075, distorted structure 09
MG   -0.5239804   -0.0843468    0.0377946 
C     1.5393144    0.0613388    0.3811643 
CL   -2.7865789    0.0737613   -0.4017348 
C     2.2583826    1.1293368   -0.0912046 
C     2.2656788   -1.1334094   -0.1944476 
H     1.7385387   -0.1009912    1.4019975 
H     3.3306398   -1.3507976   -0.1869985 
H     2.2597963   -1.2966884   -1.3191536 
H     1.7695644   -2.1620137   -0.0090447 
H     2.2927677    1.3751126   -1.3128338 
H     3.4533482    1.3134240    0.1944703 
H     2.0350372    2.0438561    0.2458402 
