15
Compound 050, distorted structure 03
C     1.1564525    0.5385981    0.0327714 
C     0.2355851    1.5278623    0.0275975 
C     2.6648022    0.8829602   -0.0140389 
H     2.8690744    1.9261609   -0.0184160 
H     3.0878612    0.3763727   -0.8816593 
H     3.0918933    0.4196277    0.8942432 
C     0.7210427   -0.8099114   -0.0184153 
N    -0.6709568   -1.0039297   -0.0095520 
C    -1.6490080   -0.0639383   -0.0190634 
N    -1.1241475    1.2496705   -0.0297320 
H     0.4481631    2.5738626    0.0102897 
H    -0.9374899   -1.9726483    0.0265271 
H    -1.8334358    1.9864883   -0.0288014 
O     1.5310225   -1.7750987   -0.0238650 
O    -2.8199109   -0.2722043   -0.0351381 
