15
Compound 050, distorted structure 02
C     1.1817797    0.5847611   -0.0080156 
C     0.2397535    1.5467720    0.0098621 
C     2.6354641    0.8424427   -0.0064591 
H     2.8352171    1.9384011   -0.0105228 
H     3.1165098    0.3846213   -0.8826874 
H     3.1171188    0.4159756    0.8838533 
C     0.7753180   -0.8332904    0.0009042 
N    -0.6564703   -1.0269926   -0.0194918 
C    -1.6207340   -0.0654121    0.0142909 
N    -1.1044529    1.2590970    0.0008641 
H     0.4951362    2.5795924    0.0159998 
H    -0.9549135   -1.9594483    0.0211145 
H    -1.8008942    1.9742020   -0.0019849 
O     1.4944537   -1.7733349   -0.0199908 
O    -2.8202125   -0.3016279   -0.0027425 
