15
Compound 050, distorted structure 06
C     1.2041551    0.6263827    0.0213745 
C     0.2194061    1.5151366    0.0129929 
C     2.6367571    0.8091772   -0.0390846 
H     2.8722120    1.8858460   -0.0203463 
H     3.1274507    0.4144651   -0.8384980 
H     3.1675796    0.4130056    0.8286759 
C     0.7552545   -0.8696302   -0.0406638 
N    -0.6034285   -1.0375974   -0.0458038 
C    -1.6654362   -0.0005714   -0.0512114 
N    -1.1016313    1.2421031   -0.0254270 
H     0.4805661    2.5506637   -0.0040654 
H    -0.9184929   -1.9911610    0.0087574 
H    -1.8447348    2.0300717    0.0048023 
O     1.4740050   -1.7613278   -0.0501220 
O    -2.7654240   -0.3388976    0.0526367 
