15
Compound 050, distorted structure 09
C     1.0925475    0.4997793   -0.0057277 
C     0.2015787    1.5433742   -0.0259899 
C     2.6385083    0.8412984   -0.0637711 
H     2.8970908    1.8741667   -0.0148549 
H     3.0492344    0.4145095   -0.7965017 
H     3.1863269    0.3677335    0.8725653 
C     0.7220088   -0.8147160   -0.0512894 
N    -0.5825111   -1.0048138    0.0444325 
C    -1.6590430   -0.0590633   -0.0489911 
N    -1.1155944    1.1934580   -0.0643708 
H     0.4686299    2.6705708    0.0669798 
H    -0.9935346   -1.9438748   -0.0400780 
H    -1.8188622    1.9937318   -0.0540601 
O     1.5797908   -1.7304764    0.0807972 
O    -2.7615313   -0.3255920    0.0630944 
