9
Compound 012, distorted structure 08
C     0.0171452   -1.1466658   -0.0202828 
N    -1.0002210   -0.3906592    0.0725672 
C    -0.7284256    0.9472943   -0.0335342 
C     0.7512630    0.9377598   -0.0756079 
N     1.1262979   -0.4115767   -0.0707290 
H     1.3458516    1.8153582   -0.0427233 
H    -1.2959735    1.7164212    0.0729940 
H    -2.0570498   -0.5902486   -0.0022800 
H     0.0589757   -2.1166018   -0.0829627 
