9
Compound 012, distorted structure 04
C     0.0476383   -1.1176362    0.0417653 
N    -1.0866590   -0.3302506   -0.0557283 
C    -0.6398644    0.9253963    0.0348220 
C     0.7016841    0.9067132   -0.0034575 
N     1.1164177   -0.3433499   -0.0382882 
H     1.4013510    1.6974855   -0.0385413 
H    -1.3271573    1.8098351    0.0209159 
H    -2.0501172   -0.6837813    0.0277370 
H     0.0516626   -2.2389202    0.0135274 
