9
Compound 012 optimized with r2SCAN-3c
C     0.0575701   -1.1167545   -0.0000100 
N    -1.0689508   -0.3435748   -0.0001339 
C    -0.6610311    0.9730230   -0.0000879 
C     0.7081145    0.9230028   -0.0000657 
N     1.1474628   -0.3820223    0.0000669 
H     1.4010210    1.7530585   -0.0000505 
H    -1.3628593    1.7933581    0.0000241 
H    -2.0211554   -0.6707325   -0.0001444 
H     0.0183126   -2.1987590   -0.0000879 
