9
Compound 012, distorted structure 07
C     0.0704690   -1.1703278    0.0577679 
N    -1.0085129   -0.2998479   -0.0714828 
C    -0.7290289    1.0131215   -0.0671975 
C     0.6879823    1.0131517   -0.0478117 
N     1.2384017   -0.3342025   -0.0067432 
H     1.4817470    1.6872742    0.0866780 
H    -1.2950156    1.8526685    0.0805150 
H    -1.9464711   -0.6158506   -0.0607306 
H    -0.0008357   -2.1418077   -0.0028432 
