9
Compound 012, distorted structure 05
C     0.0682890   -1.1502837    0.0160470 
N    -1.1062950   -0.2939338   -0.0333345 
C    -0.6752729    0.9205981    0.0022236 
C     0.6866952    0.9172287   -0.0268402 
N     1.1276636   -0.3608911   -0.0463821 
H     1.4256994    1.7034210    0.0354620 
H    -1.3202752    1.8374689    0.0585181 
H    -2.0455824   -0.6900761   -0.0441551 
H     0.0638638   -2.2045475    0.0387353 
