13
Compound 017, distorted structure 08
C    -2.6038620   -0.7014943    0.0734310 
C    -1.1517399   -0.3411860    0.0847237 
H    -3.2136008    0.1180692   -0.5842875 
H    -3.0494841   -0.6679347    0.9747867 
H    -2.9084598   -1.5614733   -0.5168381 
C    -0.5680824    0.7801605   -0.3306916 
C     0.7669687    0.9953035   -0.2181256 
C     1.6802773    0.0421296    0.3433686 
H     0.9444216    2.0118636    0.2324883 
H     1.3092070    1.1393730   -1.3164405 
H    -0.6894898   -1.0485139    0.6848981 
H    -1.2732390    1.5293547   -0.9921320 
N     2.3307445   -0.6270366    0.9588455 
