13
Compound 017, distorted structure 07
C    -2.6004643   -0.6807748    0.0980055 
C    -1.1925069   -0.3024575    0.0899951 
H    -3.1924278    0.2034467   -0.5066540 
H    -3.1546090   -0.6701879    1.0903200 
H    -2.8086479   -1.6529172   -0.4216332 
C    -0.6528528    0.7387681   -0.3252055 
C     0.9208282    1.1301323   -0.2363934 
C     1.5895366    0.0899730    0.3882456 
H     1.0427171    1.9930424    0.1310149 
H     1.2252874    1.0962669   -1.3295244 
H    -0.6697138   -1.0997504    0.6925121 
H    -1.2820291    1.4868470   -0.9010225 
N     2.2283989   -0.6842473    0.9263354 
