13
Compound 017, distorted structure 09
C    -2.6533322   -0.6487043    0.0630108 
C    -1.2383388   -0.4085719    0.2050643 
H    -3.1644604    0.1084354   -0.5294743 
H    -3.2132395   -0.6074893    1.0886418 
H    -2.8812297   -1.5008885   -0.4657800 
C    -0.6370167    0.6442058   -0.3037591 
C     0.8979871    1.0332110   -0.3650128 
C     1.5999059    0.0763673    0.3418762 
H     0.9513965    2.0756818    0.1723501 
H     1.1747384    1.0673447   -1.3182770 
H    -0.6729569   -1.0399811    0.6119191 
H    -1.2266165    1.5328857   -0.9865455 
N     2.2254250   -0.6332031    1.0771696 
