13
Compound 017, distorted structure 05
C    -2.6439758   -0.6591558    0.1044570 
C    -1.2345562   -0.2664554    0.1689130 
H    -3.1275309    0.1555120   -0.5704756 
H    -3.1003538   -0.6629699    1.0849200 
H    -2.7831882   -1.6018522   -0.4530684 
C    -0.6104292    0.7020465   -0.5002108 
C     0.7961305    1.0821803   -0.2683529 
C     1.6802678    0.1498939    0.4135754 
H     0.9861604    2.0557047    0.0689256 
H     1.2215592    1.2689912   -1.2570790 
H    -0.6152166   -1.0730623    0.7035452 
H    -1.2297879    1.5191227   -0.8306852 
N     2.1580886   -0.7405764    1.0601121 
