13
Compound 017 optimized with r2SCAN-3c
C    -2.6693467   -0.6299466    0.0413213 
C    -1.2086831   -0.3310888    0.1403306 
H    -3.2031706    0.1363851   -0.5279805 
H    -3.1201393   -0.6966225    1.0387599 
H    -2.8352561   -1.5995425   -0.4431655 
C    -0.6228248    0.7379763   -0.3893635 
C     0.8492270    1.0665548   -0.3050707 
C     1.6360229    0.0836622    0.4256507 
H     0.9931121    2.0440012    0.1763642 
H     1.2752659    1.1615287   -1.3136697 
H    -0.5981905   -1.0501663    0.6883802 
H    -1.2127082    1.4694042   -0.9409739 
N     2.2478585   -0.7047124    1.0071565 
