13
Compound 017, distorted structure 02
C    -2.6667800   -0.6529422    0.0204463 
C    -1.2121579   -0.3261418    0.1410363 
H    -3.2256991    0.1432401   -0.5223860 
H    -3.1493594   -0.6699599    1.0652974 
H    -2.8229695   -1.6223267   -0.4306782 
C    -0.6205612    0.7552676   -0.3928798 
C     0.8370788    1.0828199   -0.2828867 
C     1.6065657    0.0713096    0.4205499 
H     0.9983180    2.0248874    0.1799212 
H     1.2899947    1.1867304   -1.3258886 
H    -0.5839469   -1.0743152    0.6856923 
H    -1.2260128    1.4639635   -0.9222224 
N     2.2503328   -0.7188438    0.9938289 
