17
Compound 068, distorted structure 04
C     1.3918251    0.0285169    0.6694306 
C     0.6720528   -1.2193269    0.6600826 
C     0.7454851    1.2142457    0.6189416 
C    -0.7113350   -1.2161273    0.6465774 
C    -0.6967570    1.1725515    0.6140382 
C    -1.3900276   -0.0119564    0.6726314 
C     0.0498887   -0.0137718   -3.1472466 
H     2.4296718   -0.0420062    0.6207082 
H     1.2819975   -2.1194519    0.5974098 
H     1.2297438    2.1409216    0.6426168 
H    -1.2553777   -2.1017170    0.6521895 
H    -1.2218363    2.1267286    0.6654455 
H    -2.4246415   -0.0352310    0.5984477 
H     0.9794536   -0.0544138   -3.5109230 
H    -0.5181763    0.8714290   -3.4856998 
H    -0.4709743   -0.9025782   -3.4895569 
H     0.0499112    0.0067490   -2.0289241 
