17
Compound 068, distorted structure 03
C     1.3739970    0.0344492    0.6459098 
C     0.7332085   -1.2230904    0.6638860 
C     0.7193655    1.2268235    0.6285455 
C    -0.6613099   -1.2211448    0.6600033 
C    -0.6873711    1.2360470    0.6195541 
C    -1.3632824   -0.0255719    0.6584768 
C     0.0341529   -0.0066290   -3.1675394 
H     2.4709410    0.0182490    0.6408837 
H     1.2094241   -2.1100067    0.6739537 
H     1.2445424    2.1281765    0.6626229 
H    -1.2124593   -2.1581216    0.6005564 
H    -1.2383074    2.1743935    0.6735418 
H    -2.4559307    0.0320760    0.6317246 
H     1.0222706   -0.0264709   -3.4824847 
H    -0.5199021    0.9162768   -3.5331600 
H    -0.5107699   -0.9066427   -3.5314712 
H    -0.0157560    0.0183067   -2.0628524 
