17
Compound 068, distorted structure 02
C     1.3829945   -0.0113509    0.6414556 
C     0.7153848   -1.2185152    0.6171245 
C     0.6815451    1.1862040    0.6190919 
C    -0.6962079   -1.1940765    0.6223252 
C    -0.6746159    1.2193017    0.6469594 
C    -1.4158287    0.0216103    0.6530219 
C     0.0195667   -0.0135524   -3.1126004 
H     2.4564436   -0.0022416    0.6418706 
H     1.2383770   -2.1481920    0.6276319 
H     1.2244848    2.1306466    0.6168815 
H    -1.2545554   -2.1357114    0.6420006 
H    -1.2405716    2.1284992    0.6375907 
H    -2.4871526   -0.0019665    0.6217722 
H     1.0251289    0.0008908   -3.5095593 
H    -0.5058023    0.9097150   -3.5075642 
H    -0.5158513   -0.8915564   -3.5018444 
H    -0.0053984    0.0107152   -2.0332655 
