17
Compound 068, distorted structure 01
C     1.3836861   -0.0128877    0.6268447 
C     0.6855989   -1.1934383    0.6404827 
C     0.7032210    1.1945005    0.6554624 
C    -0.7060626   -1.1941459    0.6246678 
C    -0.6819676    1.2214706    0.6573013 
C    -1.4056532    0.0044396    0.6543162 
C    -0.0017678    0.0148639   -3.1417997 
H     2.4892893   -0.0146537    0.6214821 
H     1.2238539   -2.1602836    0.6210353 
H     1.2478792    2.1554546    0.6445310 
H    -1.2504632   -2.1350752    0.6499958 
H    -1.2264386    2.1557279    0.6349077 
H    -2.4794040    0.0148437    0.6302957 
H     1.0178243   -0.0097786   -3.5029649 
H    -0.5137141    0.9043418   -3.5077328 
H    -0.5066663   -0.8854128   -3.5069192 
H     0.0074448   -0.0039730   -2.0421106 
