17
Compound 068, distorted structure 06
C     1.4203847   -0.0442516    0.6279198 
C     0.6811279   -1.2442164    0.5784926 
C     0.7390145    1.2558304    0.6210096 
C    -0.6723541   -1.2575360    0.5875384 
C    -0.7040881    1.2254088    0.6872446 
C    -1.3958730   -0.0444516    0.5980662 
C     0.0401901   -0.0387682   -3.1495641 
H     2.4250870   -0.0182546    0.6666434 
H     1.2658301   -2.1128794    0.6526111 
H     1.1812353    2.1282826    0.6595007 
H    -1.2084693   -2.1089400    0.6855810 
H    -1.2512681    2.1519099    0.5934387 
H    -2.4826045   -0.0091023    0.6093003 
H     1.0886438    0.0117388   -3.5003816 
H    -0.4952209    0.8767034   -3.4560522 
H    -0.4932973   -0.9129970   -3.4446486 
H     0.0256622    0.0110865   -2.0890410 
