14
Compound 047 optimized with r2SCAN-3c
C    -0.4825368   -1.1629832    0.1280955 
C    -1.4677601    0.0153060   -0.0144902 
N    -0.4838419    0.9138306    0.3198216 
C     0.5918262   -0.0866781    0.4888783 
H    -0.2972298   -1.7022678   -0.8040305 
H    -0.7279211   -1.8660692    0.9270884 
H     0.9547763   -0.1558794    1.5228818 
C     1.7275034    0.0599150   -0.4654717 
C     3.0060634    0.0858949   -0.1011818 
O    -2.6319758    0.1425809   -0.2992738 
H    -0.4757184    1.9237107    0.3627968 
H     1.4505260    0.1472395   -1.5172628 
H     3.2964481    0.0073553    0.9440539 
H     3.8034468    0.1810728   -0.8311958 
