14
Compound 047, distorted structure 09
C    -0.5400146   -1.1506919    0.0702286 
C    -1.3841443   -0.0441017   -0.0725246 
N    -0.5264924    0.8851298    0.2875201 
C     0.6654365   -0.0457078    0.5089582 
H    -0.3247955   -1.6313328   -0.7449816 
H    -0.8092399   -1.7902980    0.9701701 
H     0.9762274   -0.1002397    1.5888819 
C     1.7927752    0.0935415   -0.3916382 
C     3.0382594    0.1267940   -0.1800796 
O    -2.6210237    0.0663380   -0.3479551 
H    -0.5225775    1.8712043    0.3185303 
H     1.4692326    0.1834694   -1.5599749 
H     3.3375849    0.0307203    0.9714804 
H     3.7289448    0.1231172   -0.8308087 
