14
Compound 047, distorted structure 02
C    -0.4822722   -1.1811728    0.1371050 
C    -1.4789262    0.0035175   -0.0361574 
N    -0.4612962    0.9335318    0.3242255 
C     0.6027179   -0.0710645    0.4869518 
H    -0.3135357   -1.7162318   -0.7828801 
H    -0.7088960   -1.8479609    0.9328245 
H     0.9726157   -0.1739452    1.5283236 
C     1.7223018    0.0690611   -0.4850603 
C     3.0258369    0.1035680   -0.0947081 
O    -2.6089091    0.1551774   -0.2783833 
H    -0.4813606    1.9251577    0.3795244 
H     1.4617959    0.1659630   -1.5401298 
H     3.2999631   -0.0044722    0.9601627 
H     3.8203467    0.1657878   -0.8483961 
