14
Compound 047, distorted structure 05
C    -0.4520720   -1.2050141    0.0855002 
C    -1.5219805    0.0444309    0.0161385 
N    -0.4708613    0.8956970    0.3612700 
C     0.6284711   -0.0844645    0.5215057 
H    -0.3017299   -1.7509878   -0.8476688 
H    -0.7431070   -1.8157919    0.9750914 
H     0.9832120   -0.1403303    1.5568614 
C     1.7593352    0.1028667   -0.4445354 
C     3.0094420    0.0948702   -0.0476985 
O    -2.5972850    0.1746440   -0.2822373 
H    -0.4238723    1.8898239    0.3806883 
H     1.4393450    0.2035857   -1.4856572 
H     3.3025026   -0.0219399    0.9245344 
H     3.7795762    0.2110273   -0.8660057 
