14
Compound 047, distorted structure 07
C    -0.5060400   -1.2168158    0.0738486 
C    -1.4769193    0.0662373   -0.0556581 
N    -0.4278502    0.8630468    0.3115249 
C     0.5726440   -0.1123225    0.5313931 
H    -0.3263869   -1.6646307   -0.7779560 
H    -0.7642816   -1.9190943    0.9749677 
H     0.9293898   -0.1596134    1.5234244 
C     1.7751579    0.0480662   -0.5119326 
C     3.0042904    0.0447529   -0.0666653 
O    -2.6326422    0.1624989   -0.3494019 
H    -0.5272389    1.9429263    0.3075511 
H     1.4900451    0.1201446   -1.5447849 
H     3.3156098   -0.0115290    0.9164616 
H     3.8570450    0.1386246   -0.7970603 
