Compound 047, distorted structure 01
 OpenBabel12102416353D

 14 14  0  0  1  0  0  0  0  0999 V2000
   -0.4951   -1.1740    0.1229 C   0  0  0  0  0  0  0  0  0  0  0  0
   -1.4821    0.0125   -0.0022 C   0  0  0  0  0  0  0  0  0  0  0  0
   -0.4830    0.9169    0.3359 N   0  0  0  0  0  0  0  0  0  0  0  0
    0.5781   -0.0719    0.4885 C   0  0  2  0  0  0  0  0  0  0  0  0
   -0.3097   -1.6940   -0.7882 H   0  0  0  0  0  0  0  0  0  0  0  0
   -0.7376   -1.8825    0.9136 H   0  0  0  0  0  0  0  0  0  0  0  0
    0.9537   -0.1645    1.5296 H   0  0  0  0  0  0  0  0  0  0  0  0
    1.7257    0.0491   -0.4561 C   0  0  0  0  0  0  0  0  0  0  0  0
    3.0018    0.1016   -0.1012 C   0  0  0  0  0  0  0  0  0  0  0  0
   -2.6282    0.1368   -0.2943 O   0  0  0  0  0  0  0  0  0  0  0  0
   -0.4821    1.9075    0.3628 H   0  0  0  0  0  0  0  0  0  0  0  0
    1.4459    0.1591   -1.5061 H   0  0  0  0  0  0  0  0  0  0  0  0
    3.3000    0.0086    0.9293 H   0  0  0  0  0  0  0  0  0  0  0  0
    3.8116    0.1767   -0.8302 H   0  0  0  0  0  0  0  0  0  0  0  0
  1  4  1  0  0  0  0
  1  6  1  0  0  0  0
  2  1  1  0  0  0  0
  2  3  1  0  0  0  0
  3 11  1  0  0  0  0
  3  4  1  0  0  0  0
  4  7  1  1  0  0  0
  5  1  1  0  0  0  0
  8  9  2  0  0  0  0
  8  4  1  0  0  0  0
  9 13  1  0  0  0  0
 10  2  2  0  0  0  0
 12  8  1  0  0  0  0
 14  9  1  0  0  0  0
M  END
$$$$
