14
Compound 047, distorted structure 06
C    -0.5262831   -1.1952490    0.1324985 
C    -1.5258629    0.0199593    0.0431301 
N    -0.4584590    0.8566800    0.2634009 
C     0.6370060   -0.1289933    0.5231592 
H    -0.3109593   -1.7717726   -0.7631011 
H    -0.7726002   -1.9301713    0.8966174 
H     0.9600767   -0.1066556    1.5518440 
C     1.7690210    0.0325374   -0.5338483 
C     2.9882805    0.0203190   -0.1499153 
O    -2.6018073    0.1414462   -0.3260560 
H    -0.5180146    1.8667875    0.3274604 
H     1.4889701    0.1275347   -1.5386527 
H     3.2733919   -0.0611144    0.9943910 
H     3.7317827    0.1866375   -0.8095642 
