14
Compound 047, distorted structure 03
C    -0.4628089   -1.1419398    0.1062205 
C    -1.4642386    0.0479959    0.0196878 
N    -0.4743394    0.9295737    0.2930101 
C     0.5571866   -0.0552038    0.4539107 
H    -0.2835505   -1.7034115   -0.8396844 
H    -0.7617005   -1.8355655    0.9071072 
H     0.9575674   -0.1383932    1.5068651 
C     1.7043333    0.0697857   -0.4476166 
C     2.9957974    0.0506484   -0.1116724 
O    -2.6383952    0.1337003   -0.3033175 
H    -0.4421531    1.8955479    0.3400744 
H     1.4848296    0.1357924   -1.4913992 
H     3.3337327    0.0181833    0.9705055 
H     3.8008201    0.1736201   -0.8452187 
