12
Compound 060, distorted structure 03
C     1.8918865    0.0147248   -0.0332300 
C     1.2328196   -1.1850037   -0.0001488 
C    -0.1491388   -1.2453930    0.0141459 
C    -0.8518943    0.0231632    0.0307034 
C    -0.2273063    1.2362011   -0.0162245 
C     1.2434455    1.2453054   -0.0087289 
F    -2.2382218   -0.0229853   -0.0022133 
H     2.9911056   -0.0259630   -0.0123712 
H     1.7289395   -2.1849846   -0.0242382 
H    -0.7907769   -2.1325210    0.0075246 
H    -0.7603700    2.1696724   -0.0142026 
H     1.7530715    2.1571474    0.0355229 
