12
Compound 060, distorted structure 07
C     1.8523121   -0.0515395    0.0577471 
C     1.1686197   -1.2815496   -0.0796794 
C    -0.1691737   -1.2131379   -0.0449914 
C    -0.8323125   -0.0037525    0.0422335 
C    -0.2713390    1.1551714    0.0101811 
C     1.1784807    1.2643586    0.0105586 
F    -2.1769821    0.0755579    0.0476501 
H     3.0244724   -0.0025732    0.0933304 
H     1.7473879   -2.1050685    0.0620091 
H    -0.6656083   -2.1708879    0.0410853 
H    -0.7937240    2.1772035    0.0758397 
H     1.8270728    2.2090851    0.0278952 
