12
Compound 060 optimized with r2SCAN-3c
C     1.9007099   -0.0000501   -0.0002457 
C     1.2031634   -1.2050002   -0.0002935 
C    -0.1886107   -1.2152867    0.0001700 
C    -0.8525310    0.0000310   -0.0000375 
C    -0.1885393    1.2153096   -0.0002306 
C     1.2032344    1.2049409   -0.0000069 
F    -2.2051001    0.0000703   -0.0000422 
H     2.9859637   -0.0000820   -0.0004908 
H     1.7426343   -2.1474274   -0.0005299 
H    -0.7563130   -2.1398850    0.0004177 
H    -0.7561854    2.1399424   -0.0004284 
H     1.7427607    2.1473363    0.0002559 
