17
Compound 010, distorted structure 06
C    -1.6941100   -0.7073627    0.2304854 
C    -1.6976995    0.6733148    0.2007173 
C    -0.3566147    1.3055918   -0.0981409 
C     0.4555689   -0.0592740   -0.0489157 
H    -0.1053180    2.0779111    0.6316107 
H    -0.2961381    1.7035322   -1.1652760 
C    -0.3722879   -1.3021104   -0.1432009 
H    -0.1416624   -1.9685312    0.6297983 
H    -0.3681107   -1.6648219   -1.1422447 
C     1.7167722   -0.0157823    0.8074052 
C     1.8714886    0.0414580   -0.6811630 
H     1.8852157   -0.9550679    1.3809878 
H     1.8764623    0.8900356    1.4353346 
H     2.2218353   -0.9088404   -1.0919453 
H     2.2018263    0.9243609   -1.0547301 
H    -2.6357466   -1.2788954    0.2551695 
H    -2.5790561    1.3354994    0.2780165 
