17
Compound 010 optimized with r2SCAN-3c
C    -1.7500486   -0.6656818    0.1635382 
C    -1.7504622    0.6671428    0.1637902 
C    -0.3872496    1.2362375   -0.1256134 
C     0.5182100    0.0014178   -0.0547335 
H    -0.0884023    2.0124171    0.5912866 
H    -0.3659108    1.7021082   -1.1234307 
C    -0.3866880   -1.2337491   -0.1270717 
H    -0.0871494   -2.0108933    0.5884853 
H    -0.3655725   -1.6980372   -1.1256330 
C     1.7090325    0.0007141    0.8639128 
C     1.9001866    0.0016603   -0.6328883 
H     1.9356323   -0.9146090    1.4038273 
H     1.9358130    0.9157088    1.4043407 
H     2.2575345   -0.9125371   -1.0994036 
H     2.2579694    0.9165048   -1.0978162 
H    -2.6269022   -1.2878294    0.3172122 
H    -2.6276327    1.2887454    0.3178769 
