17
Compound 010, distorted structure 01
C    -1.7424154   -0.6632384    0.1559668 
C    -1.7420822    0.6783024    0.1769882 
C    -0.3793766    1.2325286   -0.1127162 
C     0.5261389    0.0041187   -0.0446240 
H    -0.1005371    2.0218207    0.6005359 
H    -0.3628320    1.7120696   -1.1140431 
C    -0.4005929   -1.2433403   -0.1135992 
H    -0.0941215   -2.0014946    0.5798984 
H    -0.3589269   -1.7001652   -1.1380343 
C     1.7027723    0.0054223    0.8763818 
C     1.8956562   -0.0052857   -0.6352352 
H     1.9263631   -0.9104931    1.4136525 
H     1.9421909    0.9047302    1.4180690 
H     2.2611014   -0.9247960   -1.1031005 
H     2.2543361    0.9110405   -1.1091619 
H    -2.6382022   -1.2954222    0.3049445 
H    -2.6416110    1.2916707    0.3202376 
