17
Compound 010, distorted structure 08
C    -1.7918527   -0.6644122    0.1393245 
C    -1.7214309    0.5908109    0.1254718 
C    -0.3736359    1.2837938   -0.2033663 
C     0.5489641   -0.0516880   -0.0889685 
H    -0.0172061    2.0785616    0.5727197 
H    -0.4014419    1.7635003   -1.0605932 
C    -0.4254317   -1.2809028   -0.1445107 
H    -0.1269918   -1.9644902    0.6020363 
H    -0.3280847   -1.6684585   -1.1978964 
C     1.7409103    0.0292773    0.8312901 
C     1.8431480   -0.0641692   -0.5840168 
H     1.9893376   -0.9268654    1.3496450 
H     1.9786264    0.8514355    1.4636256 
H     2.3128771   -0.9319846   -1.0924475 
H     2.2273273    0.8925884   -1.0518634 
H    -2.5614119   -1.3282033    0.2535358 
H    -2.6295423    1.3263151    0.3050476 
