10
Compound 028, distorted structure 04
C     1.2721674    0.6897448    0.0053459 
C    -0.0096795   -0.0526651    0.0304203 
O     0.0078071   -1.3676512   -0.0014478 
C    -1.2850452    0.7319106   -0.0517516 
H     1.2872657    1.4981593   -0.7470222 
H     2.0937235   -0.0108230   -0.1928466 
H     1.4890279    1.1365920    0.9530421 
H    -1.3866087    1.1766472   -1.0230671 
H    -1.2296352    1.5412866    0.6627667 
H    -2.1766249    0.0953753    0.2214952 
