10
Compound 028, distorted structure 08
C     1.2490646    0.6076948    0.0721293 
C    -0.0324414   -0.0533993    0.0630350 
O     0.1031827   -1.3961344    0.0469375 
C    -1.3854435    0.7847277    0.0154895 
H     1.3545863    1.4880753   -0.7589929 
H     2.2098496    0.0248817   -0.1823017 
H     1.4057892    1.2401746    0.9340248 
H    -1.3364425    1.0791035   -1.0464664 
H    -1.3610516    1.5193667    0.7185597 
H    -2.2106596    0.1471859    0.2080946 
