14
Compound 092, distorted structure 01
C    -1.0136220    1.1875063    0.2731206 
C     0.3652630    1.3580184   -0.3510344 
S     1.4841873    0.0045280    0.1242738 
H     0.8075633    2.2802941    0.0017598 
H     0.2901460    1.4078692   -1.4675863 
C     0.3492127   -1.3598307   -0.3689139 
C    -1.0134250   -1.1859068    0.2705450 
H     0.8249697   -2.2954711   -0.0024555 
H     0.2607732   -1.3961329   -1.4620282 
O    -1.6829113    0.0009666   -0.1956827 
H    -0.9663764   -1.1854513    1.3511448 
H    -1.6800657   -2.0113409   -0.0678672 
H    -1.6768037    2.0203881   -0.0525361 
H    -0.9450700    1.1909537    1.3627487 
