14
Compound 092, distorted structure 05
C    -1.0978855    1.1535116    0.2907694 
C     0.2863215    1.2938590   -0.4092538 
S     1.4559471   -0.0283860    0.1228742 
H     0.8738907    2.2480899   -0.0754281 
H     0.1990473    1.4433810   -1.4607251 
C     0.3525751   -1.3424945   -0.4098514 
C    -1.0687629   -1.2377408    0.1895650 
H     0.7542024   -2.2436556    0.0345911 
H     0.2129586   -1.3334926   -1.4588866 
O    -1.7374048    0.0443144   -0.2149908 
H    -0.9527688   -1.1914147    1.3312386 
H    -1.7122150   -2.0315819    0.0218357 
H    -1.7217689    1.9636093   -0.0362663 
H    -0.8785180    1.2090268    1.3270643 
