14
Compound 092 optimized with r2SCAN-3c
C    -1.0285651    1.1890957    0.2577591 
C     0.3489881    1.3643188   -0.3600717 
S     1.4790028    0.0000346    0.1291671 
H     0.8090242    2.2944216   -0.0089796 
H     0.2739774    1.4024907   -1.4534617 
C     0.3491221   -1.3642984   -0.3602467 
C    -1.0282697   -1.1892768    0.2580010 
H     0.8093389   -2.2944436   -0.0095041 
H     0.2738481   -1.4021608   -1.4536290 
O    -1.6775010   -0.0002161   -0.1847435 
H    -0.9506365   -1.1937544    1.3580964 
H    -1.6836299   -2.0120868   -0.0530405 
H    -1.6840039    2.0116712   -0.0537363 
H    -0.9512818    1.1939624    1.3578780 
