14
Compound 092, distorted structure 06
C    -0.9770937    1.2187967    0.2065680 
C     0.3743448    1.3663817   -0.3131881 
S     1.4349740    0.0285520    0.0871269 
H     0.8488982    2.2591087   -0.0144059 
H     0.3057485    1.3616391   -1.4543427 
C     0.3913767   -1.4040166   -0.3069459 
C    -1.0347664   -1.2181126    0.3057763 
H     0.7965903   -2.2699382   -0.0494895 
H     0.2397940   -1.3636281   -1.4541777 
O    -1.6721199   -0.0235924   -0.2281099 
H    -0.9942752   -1.1767028    1.3398064 
H    -1.6759080   -2.0573889   -0.0386415 
H    -1.6607630    2.0271281   -0.0670792 
H    -0.9041199    1.1532689    1.4045113 
