8
Compound 096, distorted structure 02
C     0.0075619   -0.4147417    0.4564738 
C     0.0282149   -1.8062043   -0.1851391 
H    -0.0246888   -0.3992152    1.5433896 
CL   -1.4770853    0.4613957   -0.0170314 
CL    1.4641622    0.5173054   -0.0155621 
H    -0.9148191   -2.3701419    0.1414816 
H     0.8639874   -2.3822909    0.1260283 
H     0.0382610   -1.7624593   -1.2154331 
