8
Compound 096, distorted structure 05
C    -0.1141973   -0.5234971    0.4952241 
C     0.0209474   -1.7979163   -0.0931877 
H     0.0060419   -0.4944348    1.5130888 
CL   -1.4259310    0.4771090   -0.0610760 
CL    1.4027427    0.4462346   -0.1175992 
H    -0.8948153   -2.3488226    0.0636997 
H     0.9517564   -2.3692530    0.2326937 
H    -0.0256101   -1.7767918   -1.2513986 
