8
Compound 096, distorted structure 03
C    -0.0144393   -0.3567322    0.4499938 
C     0.0140112   -1.8804066   -0.1815732 
H     0.0016690   -0.4145807    1.5536836 
CL   -1.4560323    0.5553272   -0.0380958 
CL    1.4622514    0.4464480   -0.0238092 
H    -0.9671868   -2.3183497    0.1716901 
H     0.8773894   -2.4277323    0.2422277 
H    -0.0413861   -1.6894698   -1.2722985 
