8
Compound 096 optimized with r2SCAN-3c
C     0.0000083   -0.4317258    0.4421492 
C     0.0000210   -1.8120866   -0.1633949 
H     0.0000498   -0.4405376    1.5334488 
Cl   -1.4831825    0.4825830   -0.0507109 
Cl    1.4831394    0.4826439   -0.0508059 
H    -0.8915479   -2.3539608    0.1660756 
H     0.8916463   -2.3539125    0.1660013 
H    -0.0000268   -1.7548030   -1.2542247 
