8
Compound 096, distorted structure 01
C     0.0115679   -0.4380300    0.4208472 
C     0.0032635   -1.8038892   -0.1738063 
H    -0.0212737   -0.4417751    1.5310897 
CL   -1.4584126    0.4498450   -0.0496896 
CL    1.4657088    0.4738965   -0.0253105 
H    -0.8699182   -2.3895967    0.1645435 
H     0.9045391   -2.3632236    0.1438580 
H     0.0108315   -1.7777633   -1.2878107 
