8
Compound 096, distorted structure 04
C     0.0214433   -0.4027582    0.3612147 
C    -0.0631736   -1.8557400   -0.2212767 
H    -0.0179714   -0.3759680    1.5212436 
CL   -1.4235936    0.5627150   -0.0674102 
CL    1.4457564    0.4300896   -0.0877661 
H    -0.8385278   -2.4185582    0.2447556 
H     0.8481418   -2.4133304    0.2101116 
H     0.0483323   -1.7788097   -1.2255823 
