8
Compound 096, distorted structure 08
C    -0.0377289   -0.3473688    0.3795743 
C    -0.0424592   -1.9303148   -0.2056661 
H    -0.2285228   -0.2929816    1.4613687 
CL   -1.5752335    0.3872731    0.0086626 
CL    1.4751765    0.4861418    0.0009543 
H    -1.0368826   -2.2972408    0.0589631 
H     0.9074303   -2.2197728    0.1380988 
H     0.2050723   -1.5619973   -1.0701454 
