Compound 095, distorted structure 05
 OpenBabel12102416353D

  8  5  0  0  0  0  0  0  0  0999 V2000
   -0.5804    0.5354   -1.0188 C   0  0  0  0  0  3  0  0  0  0  0  0
    0.5847   -0.4964   -0.8666 C   0  0  0  0  0  3  0  0  0  0  0  0
   -1.7259    0.1473    0.3466 *   0  0  0  0  0  0  0  0  0  0  0  0
   -1.0832    0.1568   -1.8923 H   0  0  0  0  0  0  0  0  0  0  0  0
   -0.3830    1.4879   -0.8157 H   0  0  0  0  0  0  0  0  0  0  0  0
    1.6457   -0.0804    0.4458 *   0  0  0  0  0  0  0  0  0  0  0  0
    1.1004   -0.3539   -1.8838 H   0  0  0  0  0  0  0  0  0  0  0  0
    0.3428   -1.5259   -0.8367 H   0  0  0  0  0  0  0  0  0  0  0  0
  1  2  1  0  0  0  0
  1  5  1  0  0  0  0
  2  8  1  0  0  0  0
  4  1  1  0  0  0  0
  7  2  1  0  0  0  0
M  END
$$$$
