8
Compound 095, distorted structure 03
C    -0.6777565    0.4184959   -0.9712427 
C     0.6492546   -0.4185953   -0.9430868 
CL   -1.6697176   -0.0003376    0.4320601 
H    -1.1632017    0.2152890   -1.8458252 
H    -0.3775897    1.4604961   -0.8574767 
CL    1.7539147   -0.0595674    0.3801669 
H     1.2461313   -0.2055657   -1.8622526 
H     0.3168825   -1.5496806   -0.9096504 
