8
Compound 095, distorted structure 05
C    -0.5803991    0.5354250   -1.0188406 
C     0.5847423   -0.4964286   -0.8666264 
CL   -1.7259447    0.1472865    0.3466403 
H    -1.0831538    0.1568064   -1.8923027 
H    -0.3829788    1.4878655   -0.8157484 
CL    1.6457336   -0.0804040    0.4458350 
H     1.1003709   -0.3539371   -1.8838258 
H     0.3428155   -1.5259305   -0.8367015 
