8
Compound 095, distorted structure 02
C    -0.6146598    0.4597616   -0.9428129 
C     0.6078329   -0.4567108   -0.9445151 
CL   -1.7405388    0.0312648    0.4333221 
H    -1.1888805    0.2540714   -1.9140599 
H    -0.3852956    1.4693834   -0.8798429 
CL    1.7369445   -0.0462807    0.4172450 
H     1.1711407   -0.2208661   -1.8823881 
H     0.3461789   -1.4797552   -0.9208173 
