8
Compound 095 optimized with r2SCAN-3c
C    -0.6202994    0.4281655   -0.9662689 
C     0.6202678   -0.4279128   -0.9663653 
Cl   -1.7230042    0.0397741    0.4181419 
H    -1.1859045    0.2392394   -1.8847087 
H    -0.3761091    1.4907414   -0.8986876 
Cl    1.7229555   -0.0398578    0.4181535 
H     1.1858841   -0.2387640   -1.8847525 
H     0.3760760   -1.4905049   -0.8990453 
