8
Compound 095, distorted structure 01
C    -0.6347151    0.4253101   -0.9848989 
C     0.5890562   -0.4583145   -0.9964854 
CL   -1.6973574    0.0576527    0.4104905 
H    -1.2242299    0.2754714   -1.8644963 
H    -0.3599902    1.4717056   -0.9150192 
CL    1.7222786   -0.0579551    0.4103285 
H     1.1480862   -0.2224019   -1.8900593 
H     0.3456172   -1.5272031   -0.8587196 
