10
Compound 014, distorted structure 04
N     1.1979687   -0.6506376   -0.0065970 
C     1.1664858    0.5976601   -0.0376004 
C     0.0242287    1.3509789   -0.0358115 
C    -1.2107367    0.6580061   -0.0327546 
N    -1.2259754   -0.6484083    0.0029731 
C    -0.0506955   -1.3273209    0.0349998 
H     2.1376904    1.1455288    0.0145699 
H    -0.0093066    2.4656598   -0.0425558 
H    -2.1238336    1.1533135   -0.0481474 
H    -0.0398502   -2.4209302   -0.0124303 
