10
Compound 014, distorted structure 02
N     1.1734926   -0.6664351    0.0192343 
C     1.1535298    0.6732804   -0.0138635 
C     0.0184133    1.3629278   -0.0089941 
C    -1.1730810    0.6272745    0.0018311 
N    -1.2197709   -0.6837613    0.0110184 
C    -0.0011313   -1.2742897   -0.0266558 
H     2.1422159    1.1456253    0.0126541 
H     0.0138197    2.4789808   -0.0187747 
H    -2.1270986    1.1166871    0.0223177 
H     0.0264224   -2.3569071   -0.0168080 
