16
Compound 054, distorted structure 03
C     1.1264154   -1.1715123    0.5045510 
C    -0.2481488   -0.6188053    0.1350347 
C    -0.5573660    0.8191573    0.5962431 
C     0.5203743    1.8323980    0.3357952 
H    -0.7324129    0.7088964    1.7151329 
O    -1.7363271    1.2613944   -0.0376398 
O     1.1766074   -2.5900184    0.1921203 
H     1.2854975   -1.0209676    1.5712044 
H     1.8708096   -0.5912380   -0.0655204 
H     0.3798868   -2.7626807   -0.4121095 
H    -2.1602924    0.4985911   -0.4388653 
O    -1.0065170   -1.2086960   -0.4956220 
O     0.8251384    1.8558721   -1.0627003 
H     1.4366255    1.5356084    0.8604982 
H     0.2139447    2.7757804    0.6735483 
H     0.0218002    2.0258025   -1.5450070 
