16
Compound 054, distorted structure 05
C     1.1348413   -1.1930495    0.5247199 
C    -0.2511413   -0.5777313    0.0933705 
C    -0.5915219    0.7885135    0.5705365 
C     0.5553256    1.7667647    0.3340887 
H    -0.7396051    0.6878876    1.6985288 
O    -1.7788834    1.2069629    0.0245674 
O     1.1614374   -2.6029500    0.1292680 
H     1.3553481   -1.0833356    1.5612683 
H     1.8802384   -0.6363769   -0.0598304 
H     0.4363178   -2.7615758   -0.3960868 
H    -2.1426075    0.4238246   -0.3865596 
O    -0.9937998   -1.2109238   -0.5440118 
O     0.8728921    1.8609271   -1.0501639 
H     1.4629076    1.5316550    0.7989784 
H     0.1802783    2.8024919    0.6555259 
H    -0.0115823    1.9982710   -1.5869664 
