16
Compound 054, distorted structure 02
C     1.0942367   -1.2197190    0.4687382 
C    -0.2343273   -0.6166787    0.1423794 
C    -0.5715790    0.8005478    0.6034051 
C     0.5384609    1.8121584    0.2921880 
H    -0.7047399    0.7517866    1.7189994 
O    -1.7650285    1.2343637    0.0210770 
O     1.1726777   -2.5775192    0.1642681 
H     1.3074631   -1.0600474    1.5346056 
H     1.8575810   -0.6104791   -0.0890074 
H     0.4130115   -2.7596142   -0.3718287 
H    -2.1763960    0.4602151   -0.3903267 
O    -1.0324869   -1.2185351   -0.5254879 
O     0.8217518    1.8033244   -1.0908674 
H     1.4372872    1.5415327    0.8392541 
H     0.2094574    2.8105988    0.6647423 
H     0.0348486    2.0156351   -1.5203243 
