16
Compound 054, distorted structure 08
C     1.1700388   -1.2564506    0.4713063 
C    -0.2390799   -0.6045845    0.1552497 
C    -0.5916058    0.7621058    0.6117742 
C     0.5975329    1.7934469    0.3663095 
H    -0.6484084    0.6915062    1.7584441 
O    -1.7303548    1.2372555   -0.0536869 
O     1.2119606   -2.5315127    0.2310465 
H     1.3339557   -0.9977239    1.5216826 
H     1.8374054   -0.5825440   -0.0548477 
H     0.4270818   -2.7078242   -0.4094507 
H    -2.1450449    0.4924855   -0.4597917 
O    -0.9829123   -1.2026066   -0.5575337 
O     0.8762454    1.8461984   -1.0330693 
H     1.4162751    1.5782134    0.7849453 
H     0.1549735    2.8532066    0.6803965 
H     0.0049490    2.0643151   -1.5788284 
