16
Compound 054, distorted structure 06
C     1.0584365   -1.2724617    0.4692351 
C    -0.2774394   -0.6429797    0.0506485 
C    -0.5248025    0.7311967    0.6730855 
C     0.4839646    1.8114313    0.3225456 
H    -0.7652073    0.7593768    1.7619081 
O    -1.7836458    1.1853781    0.0072297 
O     1.2195685   -2.6142719    0.2103206 
H     1.4032817   -1.0814029    1.4952861 
H     1.7882857   -0.6026598   -0.0745744 
H     0.3661076   -2.7691332   -0.3813080 
H    -2.1313509    0.4163562   -0.4010804 
O    -1.1043634   -1.2574185   -0.5568095 
O     0.8831583    1.8794250   -1.0358974 
H     1.4188731    1.4745993    0.7804960 
H     0.1816577    2.7781798    0.6164256 
H     0.0623697    2.0067142   -1.5233070 
