16
Compound 054, distorted structure 04
C     1.0862554   -1.2212332    0.4594574 
C    -0.2365992   -0.5893689    0.1456080 
C    -0.5934751    0.7708239    0.6057876 
C     0.5178179    1.8137006    0.2992733 
H    -0.7121517    0.7102961    1.6877660 
O    -1.7486155    1.2199048    0.0091724 
O     1.1981330   -2.5579333    0.2021905 
H     1.2924446   -1.0541698    1.5563179 
H     1.8839149   -0.6279505   -0.1088781 
H     0.3725238   -2.7595131   -0.3928168 
H    -2.1417804    0.4675726   -0.3970466 
O    -1.0141563   -1.2091882   -0.5003848 
O     0.8098059    1.8260040   -1.1098204 
H     1.4768546    1.5426046    0.8160427 
H     0.2003347    2.7781839    0.6353732 
H     0.0227459    2.0377532   -1.5122259 
