14
Compound 048, distorted structure 02
C    -0.6706517    0.7412795   -0.4396980 
C    -0.8118651   -0.6834928   -0.0650466 
C     0.4125016   -1.2371683    0.1888119 
C     1.3891167   -0.1661236    0.0264089 
O     0.7530823    0.9939022   -0.3424706 
C    -1.4138713    1.7184793    0.5343928 
H    -1.0039096    0.9394451   -1.4752942 
O    -2.0271582   -1.2075771   -0.0558479 
H     0.6414698   -2.2380355    0.4990400 
H    -1.1842344    2.7264932    0.2524182 
H    -1.1033930    1.5487918    1.5261900 
H    -2.4660984    1.5235285    0.4732740 
O     2.5819641   -0.2068718    0.1292830 
H    -2.0079566   -2.1206262    0.1863066 
