14
Compound 048, distorted structure 09
C    -0.7119721    0.8680784   -0.4711563 
C    -0.7890402   -0.7852467   -0.1686086 
C     0.4417266   -1.1390298    0.2298851 
C     1.3473773   -0.2693675    0.0025325 
O     0.8507369    1.0095238   -0.2729861 
C    -1.4380802    1.7486814    0.4823861 
H    -0.9113992    0.8457076   -1.5592538 
O    -1.9677843   -1.2660162    0.0251784 
H     0.7223364   -2.2596030    0.5067462 
H    -1.1926215    2.7578565    0.1630510 
H    -1.1293883    1.4627651    1.4593250 
H    -2.5506904    1.5593822    0.3921291 
O     2.6164203   -0.3087135    0.1249014 
H    -2.0483917   -2.2107076    0.2558596 
