14
Compound 048, distorted structure 03
C    -0.6700558    0.7313010   -0.4028183 
C    -0.8273344   -0.6891210   -0.0975026 
C     0.4173911   -1.2514265    0.1895621 
C     1.3873139   -0.1739550    0.0328265 
O     0.7310193    0.9825936   -0.3186785 
C    -1.4104931    1.7183446    0.4895983 
H    -1.0225274    0.9649931   -1.4851163 
O    -2.0447075   -1.2284449   -0.0585669 
H     0.6584962   -2.2085745    0.5078144 
H    -1.2105564    2.7288803    0.2427178 
H    -1.0769434    1.5571935    1.5300627 
H    -2.5029716    1.5403133    0.4864484 
O     2.6028827   -0.1850206    0.1691390 
H    -1.9973647   -2.1110031    0.1705309 
