12
Compound 088, distorted structure 05
C     2.5440732    0.0689485   -0.0075187 
C     1.1250309   -0.5549162    0.0446069 
H     2.7241135    0.6848902   -0.9788508 
H     3.2565948   -0.6939471    0.1185854 
H     2.6891014    0.7123620    0.8623037 
C     0.0065265    0.5916283   -0.0203510 
H     0.9576189   -1.0505309    0.8978767 
H     0.9652197   -1.2115306   -0.7417653 
H     0.1708928    1.3062416    0.7675219 
S    -1.6444558   -0.1183229    0.0147406 
H     0.1250273    1.1260450   -0.9935050 
H    -1.6376703   -0.7513629   -1.0341841 
