12
Compound 088, distorted structure 08
C     2.4327110    0.0159117    0.1014808 
C     1.0038420   -0.5598200   -0.0115913 
H     2.7998728    0.5842699   -0.9770048 
H     3.2075189   -0.7407647    0.0512380 
H     2.6268951    0.8604130    0.7393825 
C     0.0682084    0.5920938   -0.0371310 
H     0.8350767   -1.0664252    0.9114393 
H     1.0874156   -1.2734300   -0.9050608 
H     0.0734035    1.3509434    0.8683697 
S    -1.7110208    0.0441210    0.1465558 
H     0.0687443    1.2566658   -1.1020049 
H    -1.6411906   -0.8481429   -1.0646534 
