14
Compound 067 optimized with r2SCAN-3c
C     1.8721642   -0.1517874    0.4529708 
O     1.2286090   -1.1780972    0.4666712 
C    -1.4760417   -0.0149731    0.5625469 
O    -1.1685109    1.1564167    0.5434525 
C     1.8035365    0.8826804   -0.6234900 
H     2.5694872    0.0794216    1.2921353 
H     1.1851829    0.5446202   -1.4568193 
H     2.8150333    1.1350886   -0.9632484 
H     1.3671981    1.7954082   -0.1974940 
C    -1.9467305   -0.7887047   -0.6290952 
H    -1.4158737   -0.5976510    1.5101618 
H    -1.9894365   -0.1548685   -1.5172699 
H    -2.9331801   -1.2214853   -0.4219954 
H    -1.2564604   -1.6255542   -0.7892218 
