14
Compound 067, distorted structure 02
C     1.8419059   -0.1481404    0.4514705 
O     1.1943555   -1.1944197    0.4602976 
C    -1.4877419    0.0017604    0.5719326 
O    -1.1589187    1.1839538    0.5645228 
C     1.8380524    0.8701061   -0.6229322 
H     2.5339067    0.0527753    1.3059419 
H     1.1877823    0.5756996   -1.4417828 
H     2.8475291    1.1717283   -0.9861205 
H     1.3378122    1.7948459   -0.1756940 
C    -1.9475561   -0.7680228   -0.6268540 
H    -1.3983830   -0.6194422    1.5267306 
H    -2.0210104   -0.1232346   -1.5535824 
H    -2.9430592   -1.2460905   -0.4478421 
H    -1.2753504   -1.6536019   -0.8075701 
