14
Compound 067, distorted structure 01
C     1.8631919   -0.1580627    0.4676893 
O     1.2280817   -1.1915813    0.4687505 
C    -1.4686306   -0.0290579    0.5747420 
O    -1.1527656    1.1702509    0.5567973 
C     1.8035030    0.8889479   -0.6167702 
H     2.5884718    0.0857031    1.2885614 
H     1.1844767    0.5587968   -1.4501584 
H     2.8231561    1.1435421   -0.9575306 
H     1.3660807    1.7955497   -0.2006797 
C    -1.9638092   -0.7824077   -0.6269788 
H    -1.4107104   -0.6183714    1.5070435 
H    -1.9710420   -0.1666459   -1.5078455 
H    -2.9426406   -1.2024974   -0.4175113 
H    -1.2417845   -1.6093886   -0.7970807 
