14
Compound 067, distorted structure 06
C     1.8627682   -0.1120791    0.4648305 
O     1.1830977   -1.2252753    0.4385607 
C    -1.5363426    0.0374898    0.5873659 
O    -1.1579091    1.0972988    0.5581959 
C     1.8568095    0.8893556   -0.6859544 
H     2.5877027    0.0716449    1.2873443 
H     1.2238845    0.6187611   -1.4509691 
H     2.8863515    1.1123252   -0.9265426 
H     1.4373234    1.8264853   -0.2101040 
C    -1.9588104   -0.7655983   -0.6539609 
H    -1.3671879   -0.6265113    1.4588132 
H    -1.9154642   -0.0809791   -1.5560581 
H    -2.9196079   -1.1884305   -0.4859204 
H    -1.2475720   -1.6330208   -0.7195526 
