12
Compound 036, distorted structure 06
C     1.9808682   -0.1042147   -0.0359935 
C     0.6192582    0.5346306    0.0218781 
C    -0.4746875   -0.4657569   -0.0767266 
H    -0.4652865   -1.1216989   -0.8664983 
H    -0.4564269   -1.1852787    0.9076365 
O    -1.7439611    0.0973406    0.1107943 
H    -2.5147973   -0.4128323    0.0488817 
H     0.3954804    1.1536899    0.9920348 
H     0.5092861    1.2882252   -0.8050759 
H     2.1560261   -0.7412982   -1.0381213 
H     2.7054405    0.7120766   -0.0681605 
H     2.1230581   -0.7320721    0.7914483 
