12
Compound 036, distorted structure 02
C     1.9777941   -0.1173372   -0.0530151 
C     0.5637154    0.5328612    0.0062172 
C    -0.5302224   -0.4961618   -0.0348319 
H    -0.4287116   -1.0860014   -0.9563466 
H    -0.4124354   -1.2008547    0.8154156 
O    -1.7717565    0.1669483    0.0060298 
H    -2.4742933   -0.4779526   -0.0035871 
H     0.4396623    1.1409635    0.9696825 
H     0.4221676    1.2309593   -0.7827003 
H     2.1224600   -0.6761342   -0.9467369 
H     2.7081467    0.6610091   -0.0216705 
H     2.0869046   -0.7686129    0.8074158 
