12
Compound 036, distorted structure 01
C     1.9370410   -0.0879559   -0.0422854 
C     0.5577636    0.5419031    0.0295319 
C    -0.5290485   -0.4974909   -0.0080099 
H    -0.4312940   -1.1138923   -0.9547973 
H    -0.4214173   -1.2223762    0.8209329 
O    -1.7924948    0.1672906    0.0384322 
H    -2.5095936   -0.4809956   -0.0042647 
H     0.4295637    1.1081511    0.9303754 
H     0.4170419    1.2038474   -0.8309015 
H     2.0989762   -0.6743376   -0.9536228 
H     2.7377797    0.6701621   -0.0021630 
H     2.1056642   -0.7705994    0.8242660 
