12
Compound 036, distorted structure 07
C     1.8789941   -0.1025466    0.0261780 
C     0.5363275    0.5271747    0.0642539 
C    -0.4703027   -0.5918328    0.0035160 
H    -0.3955545   -1.1539724   -0.9929567 
H    -0.4681818   -1.1774830    0.8756485 
O    -1.8590110    0.0894842    0.0526017 
H    -2.4456745   -0.5018171   -0.0720976 
H     0.4310750    1.0677609    0.9971232 
H     0.4677210    1.1820245   -0.7954641 
H     2.1393241   -0.7286757   -0.9991617 
H     2.7616314    0.5952671   -0.0068960 
H     2.0465554   -0.8095526    0.7764501 
