12
Compound 036, distorted structure 09
C     1.9819308   -0.1693055   -0.0799917 
C     0.5341774    0.6349927    0.0333553 
C    -0.4341011   -0.4110327   -0.0380001 
H    -0.5372748   -1.1413413   -0.9391126 
H    -0.4543500   -1.2452163    0.8976282 
O    -1.7198160    0.0705149    0.0838324 
H    -2.5607636   -0.5094365   -0.0643120 
H     0.4218387    1.0351282    0.9026944 
H     0.4503739    1.2988956   -0.7833815 
H     2.1194130   -0.7404609   -0.8883001 
H     2.6252853    0.6824214    0.0010515 
H     1.9999429   -0.8914894    0.8007773 
