20
Compound 011, distorted structure 05
C    -1.5459820    0.6949417   -0.5603537 
C    -1.5164589   -0.5574970   -0.2891067 
C    -0.5850729   -1.4195103    0.6399816 
C     0.7337694   -1.8307556   -0.0738703 
H    -1.1784541   -2.3918930    0.8895124 
H    -0.4033045   -0.8756179    1.6012979 
C     1.5759353   -0.7133404   -0.5881288 
H     0.4983065   -2.4921295   -0.9626034 
H     1.2598665   -2.4259859    0.6220982 
C     1.5992300    0.6056846   -0.2975242 
C     0.5856256    1.4118695    0.6127926 
C    -0.6977128    1.8206636    0.0161134 
H     1.2077550    2.2498325    0.9267173 
H     0.4917962    0.8318810    1.5424358 
H    -0.4549580    2.4812038   -0.9025405 
H    -1.2987451    2.3951687    0.6787535 
H    -2.3086621    1.0937823   -1.2366451 
H    -2.3610282   -1.2136832   -0.7580829 
H     2.3668967   -0.9882290   -1.2978545 
H     2.2675953    1.2834707   -0.7523480 
