20
Compound 011, distorted structure 07
C    -1.5933964    0.6673757   -0.5115101 
C    -1.5048603   -0.6079761   -0.2895310 
C    -0.6591016   -1.4375664    0.5982441 
C     0.7033910   -1.8398712   -0.0948203 
H    -1.1106576   -2.3444466    0.9052038 
H    -0.4329758   -0.8963960    1.6177738 
C     1.5146578   -0.7331958   -0.5062291 
H     0.4954609   -2.4733341   -0.9344391 
H     1.2948245   -2.3825930    0.5911339 
C     1.5973736    0.6209270   -0.3218493 
C     0.6131034    1.4399643    0.6084620 
C    -0.6241111    1.7485658    0.0499652 
H     1.1858064    2.2528256    0.9764881 
H     0.4481077    0.8508682    1.5882413 
H    -0.4319815    2.4617118   -0.8700033 
H    -1.2062272    2.3792614    0.7346023 
H    -2.3103673    1.0738377   -1.1975123 
H    -2.2741229   -1.2012078   -0.8029093 
H     2.3177308   -1.0081554   -1.3101453 
H     2.3118622    1.2730830   -0.8257856 
