20
Compound 011, distorted structure 01
C    -1.5571366    0.7074714   -0.5100443 
C    -1.5708406   -0.6224112   -0.2658980 
C    -0.6453773   -1.4093407    0.6185075 
C     0.6720828   -1.7866350   -0.0682015 
H    -1.1554620   -2.3437523    0.9144382 
H    -0.4328606   -0.8698400    1.5559097 
C     1.5764422   -0.6884008   -0.5402517 
H     0.4450227   -2.4344820   -0.9237961 
H     1.2702309   -2.4385032    0.6187223 
C     1.5590638    0.6239017   -0.2754992 
C     0.6544226    1.3816497    0.6647131 
C    -0.6942029    1.7925043    0.0018545 
H     1.1642874    2.3007423    0.9705602 
H     0.4572145    0.8314441    1.5930156 
H    -0.4476737    2.4561468   -0.8396383 
H    -1.2602694    2.4104015    0.6970335 
H    -2.3377480    1.0490485   -1.2103746 
H    -2.3093822   -1.2224480   -0.7980452 
H     2.3259078   -1.0223151   -1.2503540 
H     2.2916654    1.2249186   -0.7744808 
