20
Compound 011, distorted structure 02
C    -1.5670550    0.7146437   -0.5313717 
C    -1.5608949   -0.6327242   -0.2620925 
C    -0.6545590   -1.3893360    0.6260623 
C     0.6696422   -1.7868922   -0.0403118 
H    -1.1629509   -2.3448156    0.8952794 
H    -0.4269809   -0.8649155    1.5536154 
C     1.5646334   -0.6610090   -0.5369654 
H     0.4526430   -2.4464966   -0.9339041 
H     1.2489784   -2.4469312    0.6170041 
C     1.5402308    0.6279609   -0.2796021 
C     0.6417861    1.3755965    0.6806579 
C    -0.6808215    1.7847826   -0.0033397 
H     1.1602423    2.3226420    0.9774158 
H     0.4706231    0.8465430    1.5916895 
H    -0.4721183    2.4563341   -0.8645568 
H    -1.2576719    2.4266901    0.7199058 
H    -2.3294592    1.0314280   -1.2322789 
H    -2.3206565   -1.2163566   -0.7930695 
H     2.3213331   -1.0056036   -1.2775769 
H     2.3014609    1.2376945   -0.7916862 
