12
Compound 035, distorted structure 02
C    -1.2928530   -0.6698234    0.1265810 
H    -2.1373980   -0.1639359   -0.2345980 
H    -1.2961443   -0.7177501    1.2043354 
H    -1.3475953   -1.6963907   -0.2541364 
C    -0.0075351   -0.0188657   -0.3407163 
C     1.2557709   -0.7406305    0.1491177 
H     1.2805595   -0.7711238    1.1989087 
H     1.2878759   -1.7567098   -0.2256743 
H     2.1729184   -0.2173420   -0.2101818 
H    -0.0224105   -0.0549885   -1.4944961 
O    -0.0411172    1.3192243    0.1050493 
H     0.7538523    1.7661531   -0.1391048 
