12
Compound 035, distorted structure 03
C    -1.2413970   -0.6764337    0.1599206 
H    -2.1070070   -0.1682940   -0.2311633 
H    -1.2781232   -0.7277681    1.2398214 
H    -1.3532782   -1.7304153   -0.2768095 
C    -0.0135951   -0.0406254   -0.3880165 
C     1.2275467   -0.7773613    0.1621733 
H     1.3019504   -0.7595995    1.1780149 
H     1.2497911   -1.7643186   -0.2283095 
H     2.1779902   -0.2391873   -0.2726075 
H    -0.0081219   -0.0282823   -1.4507445 
O    -0.0377952    1.3662126    0.1133546 
H     0.7712522    1.7325423   -0.1729733 
