12
Compound 035, distorted structure 04
C    -1.2262547   -0.7419081    0.1196402 
H    -2.1375036   -0.1983495   -0.2594009 
H    -1.2742312   -0.7637232    1.2784493 
H    -1.3183761   -1.7813871   -0.2610099 
C    -0.0431255    0.0194552   -0.3306274 
C     1.2702689   -0.7290176    0.1728285 
H     1.2481119   -0.8043343    1.1825004 
H     1.2217459   -1.7611685   -0.2836081 
H     2.2302092   -0.2057158   -0.2904167 
H    -0.0291713   -0.0787300   -1.4478238 
O    -0.0144976    1.3659872    0.0633828 
H     0.8345459    1.8157262   -0.1158802 
