12
Compound 035, distorted structure 05
C    -1.2489440   -0.6885558    0.0674555 
H    -2.1782602   -0.1022806   -0.2090420 
H    -1.3117427   -0.6517310    1.2252607 
H    -1.4325114   -1.7187191   -0.3179695 
C    -0.0601547    0.0469839   -0.3212432 
C     1.2483616   -0.6510343    0.0711527 
H     1.2789757   -0.8345999    1.2405701 
H     1.3135503   -1.7489692   -0.2906215 
H     2.1823804   -0.2755768   -0.3052426 
H    -0.0278256   -0.0931936   -1.4370066 
O    -0.1242981    1.3919744    0.0485182 
H     0.7888646    1.8118611   -0.1851416 
