Compound 053, distorted structure 08
 OpenBabel12102416353D

 16 15  0  0  1  0  0  0  0  0999 V2000
    0.6958   -1.9201    0.1015 C   0  0  0  0  0  0  0  0  0  0  0  0
    0.5715   -0.5330    0.7081 C   0  0  2  0  0  0  0  0  0  0  0  0
   -0.7697   -0.0044    0.5409 C   0  0  1  0  0  0  0  0  0  0  0  0
    1.6610    0.4323    0.2139 O   0  0  0  0  0  0  0  0  0  0  0  0
    0.8236   -0.6682    1.8008 H   0  0  0  0  0  0  0  0  0  0  0  0
   -0.8015    1.4160    0.9734 C   0  0  0  0  0  0  0  0  0  0  0  0
   -1.4196   -0.4620    1.1509 H   0  0  0  0  0  0  0  0  0  0  0  0
   -1.2220   -0.0259   -0.8705 O   0  0  0  0  0  0  0  0  0  0  0  0
    0.9244   -1.8281   -1.3033 O   0  0  0  0  0  0  0  0  0  0  0  0
   -0.1212   -2.4747    0.1994 H   0  0  0  0  0  0  0  0  0  0  0  0
    1.7400   -2.4449    0.2956 H   0  0  0  0  0  0  0  0  0  0  0  0
    0.0831   -1.3689   -1.7171 H   0  0  0  0  0  0  0  0  0  0  0  0
   -1.2457    2.3892    0.3522 O   0  0  0  0  0  0  0  0  0  0  0  0
   -0.3970    1.6001    2.0794 H   0  0  0  0  0  0  0  0  0  0  0  0
   -1.4193    0.9348   -1.1795 H   0  0  0  0  0  0  0  0  0  0  0  0
    1.7980    0.0972   -0.6950 H   0  0  0  0  0  0  0  0  0  0  0  0
  1 10  1  0  0  0  0
  1 11  1  0  0  0  0
  1  2  1  0  0  0  0
  2  5  1  1  0  0  0
  3  2  1  0  0  0  0
  3  6  1  0  0  0  0
  3  7  1  1  0  0  0
  4  2  1  0  0  0  0
  6 14  1  0  0  0  0
  8  3  1  0  0  0  0
  9  1  1  0  0  0  0
 12  9  1  0  0  0  0
 13  6  2  0  0  0  0
 15  8  1  0  0  0  0
 16  4  1  0  0  0  0
M  END
$$$$
