Compound 053, distorted structure 02
 OpenBabel12102416353D

 16 15  0  0  1  0  0  0  0  0999 V2000
    0.7421   -1.9294    0.0237 C   0  0  0  0  0  0  0  0  0  0  0  0
    0.5996   -0.5531    0.6987 C   0  0  2  0  0  0  0  0  0  0  0  0
   -0.7678    0.0577    0.5029 C   0  0  1  0  0  0  0  0  0  0  0  0
    1.6149    0.3513    0.2024 O   0  0  0  0  0  0  0  0  0  0  0  0
    0.7966   -0.6560    1.7664 H   0  0  0  0  0  0  0  0  0  0  0  0
   -0.7976    1.4778    0.9705 C   0  0  0  0  0  0  0  0  0  0  0  0
   -1.5154   -0.5442    1.1209 H   0  0  0  0  0  0  0  0  0  0  0  0
   -1.2077   -0.0115   -0.8715 O   0  0  0  0  0  0  0  0  0  0  0  0
    0.8852   -1.7765   -1.4132 O   0  0  0  0  0  0  0  0  0  0  0  0
   -0.1122   -2.5293    0.3073 H   0  0  0  0  0  0  0  0  0  0  0  0
    1.6621   -2.3787    0.3656 H   0  0  0  0  0  0  0  0  0  0  0  0
    0.1121   -1.3600   -1.6970 H   0  0  0  0  0  0  0  0  0  0  0  0
   -1.1779    2.3912    0.2502 O   0  0  0  0  0  0  0  0  0  0  0  0
   -0.4869    1.6344    1.9996 H   0  0  0  0  0  0  0  0  0  0  0  0
   -1.3764    0.9066   -1.1219 H   0  0  0  0  0  0  0  0  0  0  0  0
    1.7378    0.1143   -0.7095 H   0  0  0  0  0  0  0  0  0  0  0  0
  1 10  1  0  0  0  0
  1 11  1  0  0  0  0
  1  2  1  0  0  0  0
  2  5  1  1  0  0  0
  3  2  1  0  0  0  0
  3  6  1  0  0  0  0
  3  7  1  1  0  0  0
  4  2  1  0  0  0  0
  6 14  1  0  0  0  0
  8  3  1  0  0  0  0
  9  1  1  0  0  0  0
 12  9  1  0  0  0  0
 13  6  2  0  0  0  0
 15  8  1  0  0  0  0
 16  4  1  0  0  0  0
M  END
$$$$
