16
Compound 053, distorted structure 05
C     0.7138460   -1.8443120   -0.0290008 
C     0.6009586   -0.5344664    0.7120182 
C    -0.8393426    0.0515063    0.4439475 
O     1.5542525    0.3449632    0.2608235 
H     0.8085558   -0.6207908    1.8209738 
C    -0.7530703    1.4998921    0.9502912 
H    -1.4694913   -0.4935004    1.1703315 
O    -1.2681524   -0.0091275   -0.8653825 
O     0.8623623   -1.7847963   -1.3811142 
H    -0.0881498   -2.5277765    0.2797662 
H     1.6563734   -2.4294548    0.3341836 
H     0.1376786   -1.3215300   -1.6839247 
O    -1.1859217    2.4506179    0.3155211 
H    -0.4797453    1.6933179    2.0040133 
H    -1.3939939    0.9071765   -1.1784491 
H     1.8229147    0.1156338   -0.6752639 
