16
Compound 053, distorted structure 02
C     0.7421117   -1.9294329    0.0236727 
C     0.5995817   -0.5531240    0.6986573 
C    -0.7677526    0.0577403    0.5028966 
O     1.6148904    0.3512982    0.2023517 
H     0.7966282   -0.6559623    1.7664084 
C    -0.7975725    1.4778498    0.9705145 
H    -1.5153667   -0.5442462    1.1209147 
O    -1.2077322   -0.0114838   -0.8715021 
O     0.8851826   -1.7765026   -1.4132276 
H    -0.1122289   -2.5292949    0.3073336 
H     1.6620853   -2.3786959    0.3655529 
H     0.1120687   -1.3599578   -1.6970393 
O    -1.1779065    2.3912109    0.2501898 
H    -0.4869085    1.6343855    1.9995982 
H    -1.3764152    0.9065504   -1.1218970 
H     1.7378070    0.1143344   -0.7095470 
