16
Compound 053, distorted structure 03
C     0.7605318   -1.8807148    0.0154482 
C     0.5986333   -0.5078775    0.7160640 
C    -0.7778956    0.0791811    0.4868770 
O     1.6356169    0.3475223    0.2065868 
H     0.7432338   -0.6795109    1.7424577 
C    -0.8507351    1.4971691    1.0076575 
H    -1.4560765   -0.5516587    1.1645474 
O    -1.1925752   -0.0099421   -0.8574742 
O     0.9078492   -1.7813614   -1.3961396 
H    -0.0575902   -2.5209962    0.2688029 
H     1.6912719   -2.3889209    0.3954577 
H     0.0632784   -1.3650391   -1.7278513 
O    -1.2054179    2.4213607    0.2642443 
H    -0.5057921    1.6248959    2.0635182 
H    -1.4204632    0.9536041   -1.1349094 
H     1.7615473    0.0709747   -0.7603093 
