16
Compound 053 optimized with r2SCAN-3c
C     0.7583395   -1.9095579    0.0217020 
C     0.6176762   -0.5364336    0.6892585 
C    -0.7925534    0.0543985    0.4933448 
O     1.6054232    0.3561719    0.2008327 
H     0.7800825   -0.6490159    1.7723892 
C    -0.8113131    1.4836053    0.9828054 
H    -1.4942063   -0.5220119    1.1274071 
O    -1.2104070   -0.0040964   -0.8567431 
O     0.9051270   -1.7794397   -1.3889432 
H    -0.0968272   -2.5509470    0.2871788 
H     1.6759331   -2.3887721    0.3789810 
H     0.0945280   -1.3557748   -1.7103595 
O    -1.1795220    2.3902922    0.2716238 
H    -0.4661298    1.6558619    2.0232131 
H    -1.3952723    0.9154741   -1.1189943 
H     1.7609279    0.1038455   -0.7225519 
