Compound 079, distorted structure 02
 OpenBabel12102416353D

 14  9  0  0  0  0  0  0  0  0999 V2000
   -0.4297    0.0228    0.0004 *   0  0  0  0  0  0  0  0  0  0  0  0
    1.6739   -0.0104   -0.0047 *   0  0  0  0  0  0  0  0  0  0  0  0
   -0.9975   -0.5743   -1.7026 C   0  0  0  0  0  3  0  0  0  0  0  0
   -1.0276    1.7685    0.3306 C   0  0  0  0  0  3  0  0  0  0  0  0
   -1.0067   -1.1896    1.3020 C   0  0  0  0  0  3  0  0  0  0  0  0
   -0.6272    2.4218   -0.4181 H   0  0  0  0  0  0  0  0  0  0  0  0
   -0.6693    2.0683    1.3437 H   0  0  0  0  0  0  0  0  0  0  0  0
   -2.1017    1.8082    0.3525 H   0  0  0  0  0  0  0  0  0  0  0  0
   -2.0828   -1.1901    1.3671 H   0  0  0  0  0  0  0  0  0  0  0  0
   -0.6539   -0.8634    2.2900 H   0  0  0  0  0  0  0  0  0  0  0  0
   -0.6348   -2.1698    1.1481 H   0  0  0  0  0  0  0  0  0  0  0  0
   -2.0900   -0.5623   -1.7198 H   0  0  0  0  0  0  0  0  0  0  0  0
   -0.6085   -1.6055   -1.9439 H   0  0  0  0  0  0  0  0  0  0  0  0
   -0.6206    0.0725   -2.4595 H   0  0  0  0  0  0  0  0  0  0  0  0
  4  8  1  0  0  0  0
  4  7  1  0  0  0  0
  5  9  1  0  0  0  0
  5 10  1  0  0  0  0
  6  4  1  0  0  0  0
 11  5  1  0  0  0  0
 12  3  1  0  0  0  0
 13  3  1  0  0  0  0
 14  3  1  0  0  0  0
M  END
$$$$
