14
Compound 079, distorted structure 03
SI   -0.4459291    0.0248177   -0.0096932 
CL    1.6219924   -0.0421140    0.0016116 
C    -1.0060525   -0.5167204   -1.7232671 
C    -1.0407915    1.7424684    0.3148385 
C    -1.0484816   -1.2185967    1.3283550 
H    -0.6273879    2.4100885   -0.4514384 
H    -0.6072168    2.1030546    1.2991253 
H    -2.0545239    1.7657996    0.3825415 
H    -2.1247799   -1.2473518    1.3820854 
H    -0.6084675   -0.9013784    2.3320677 
H    -0.6538957   -2.2206318    1.1658035 
H    -2.1191753   -0.5672050   -1.7625691 
H    -0.6775972   -1.5287786   -1.9124274 
H    -0.6165147    0.0777119   -2.4579294 
