14
Compound 079, distorted structure 02
SI   -0.4297019    0.0227616    0.0004467 
CL    1.6738758   -0.0103764   -0.0046512 
C    -0.9975146   -0.5742873   -1.7025755 
C    -1.0275962    1.7685368    0.3305962 
C    -1.0067247   -1.1895782    1.3019813 
H    -0.6271875    2.4218214   -0.4180707 
H    -0.6693278    2.0683313    1.3436815 
H    -2.1017181    1.8082407    0.3524677 
H    -2.0828093   -1.1900783    1.3670998 
H    -0.6539264   -0.8634339    2.2899786 
H    -0.6347918   -2.1698434    1.1481229 
H    -2.0899624   -0.5622867   -1.7198228 
H    -0.6084736   -1.6054955   -1.9439391 
H    -0.6206144    0.0725195   -2.4594631 
