Compound 079, distorted structure 04
 OpenBabel12102416353D

 14  9  0  0  0  0  0  0  0  0999 V2000
   -0.4295   -0.0327   -0.0477 *   0  0  0  0  0  0  0  0  0  0  0  0
    1.6725    0.0499   -0.0097 *   0  0  0  0  0  0  0  0  0  0  0  0
   -1.0525   -0.5835   -1.6469 C   0  0  0  0  0  3  0  0  0  0  0  0
   -1.0536    1.8008    0.3554 C   0  0  0  0  0  3  0  0  0  0  0  0
   -0.9922   -1.1687    1.3629 C   0  0  0  0  0  3  0  0  0  0  0  0
   -0.6220    2.4546   -0.4021 H   0  0  0  0  0  0  0  0  0  0  0  0
   -0.6937    2.1421    1.3865 H   0  0  0  0  0  0  0  0  0  0  0  0
   -2.1632    1.8165    0.3525 H   0  0  0  0  0  0  0  0  0  0  0  0
   -2.1613   -1.1769    1.3501 H   0  0  0  0  0  0  0  0  0  0  0  0
   -0.5797   -0.8785    2.3114 H   0  0  0  0  0  0  0  0  0  0  0  0
   -0.6427   -2.1985    1.0970 H   0  0  0  0  0  0  0  0  0  0  0  0
   -2.1581   -0.6034   -1.6936 H   0  0  0  0  0  0  0  0  0  0  0  0
   -0.6128   -1.6200   -1.9691 H   0  0  0  0  0  0  0  0  0  0  0  0
   -0.6449    0.0807   -2.4710 H   0  0  0  0  0  0  0  0  0  0  0  0
  4  7  1  0  0  0  0
  5 10  1  0  0  0  0
  6  4  1  0  0  0  0
  8  4  1  0  0  0  0
  9  5  1  0  0  0  0
 11  5  1  0  0  0  0
 12  3  1  0  0  0  0
 13  3  1  0  0  0  0
 14  3  1  0  0  0  0
M  END
$$$$
