14
Compound 079 optimized with r2SCAN-3c
Si   -0.4490978    0.0001073   -0.0000332 
Cl    1.6525074   -0.0004344    0.0006556 
C    -1.0045454   -0.5637806   -1.6931695 
C    -1.0046265    1.7484104    0.3577536 
C    -1.0055938   -1.1839885    1.3346883 
H    -0.6357126    2.4422414   -0.4044810 
H    -0.6350467    2.0872868    1.3309020 
H    -2.0995056    1.8075336    0.3702127 
H    -2.1004810   -1.2247814    1.3784863 
H    -0.6377650   -0.8706328    2.3170257 
H    -0.6354679   -2.1960810    1.1419404 
H    -2.0994018   -0.5827257   -1.7505398 
H    -0.6354701   -1.5706708   -1.9132131 
H    -0.6351483    0.1098518   -2.4730365 
