14
Compound 079, distorted structure 06
SI   -0.4813951    0.0482648    0.0556295 
CL    1.6155050    0.0245287   -0.0614963 
C    -1.0682955   -0.5221040   -1.6996670 
C    -0.9463158    1.7222647    0.3154755 
C    -1.0701703   -1.1580127    1.3954262 
H    -0.6466837    2.4407102   -0.3481225 
H    -0.5909035    2.1202990    1.2668360 
H    -2.1350313    1.8005751    0.3276857 
H    -2.0503736   -1.2663042    1.3225886 
H    -0.6184456   -0.8972897    2.3760782 
H    -0.6052306   -2.1760833    1.0913536 
H    -2.1454865   -0.5877409   -1.7906676 
H    -0.5844753   -1.5730439   -1.9561920 
H    -0.6400762    0.0980403   -2.4994184 
