17
Compound 055, distorted structure 08
C    -0.0903184    0.1448710    0.7150445 
C    -1.3938923   -0.0118431   -0.0105231 
C     0.7265090    1.3748440    0.2004682 
C     1.7166404    0.6318144   -0.9145427 
H     1.3029289    1.8670420    0.8493345 
H     0.0455490    2.0719598   -0.2701025 
C     1.9989108   -0.6213974   -0.0839624 
H     2.4356429    1.2771954   -1.2128208 
H     1.0929320    0.3070633   -1.8309370 
N     0.8810365   -1.0116009    0.5446566 
H    -0.2914462    0.3600291    1.8222266 
H     2.8622716   -0.2979351    0.5529414 
H     2.3943824   -1.3656458   -0.7445410 
O    -2.2687901    0.8178295   -0.0402222 
O    -1.5136333   -1.3036701   -0.6207607 
H    -0.5627047   -1.6120302   -0.2855809 
H     1.0367660   -1.3721903    1.4837723 
