17
Compound 055, distorted structure 09
C    -0.1335518    0.2127184    0.7515942 
C    -1.4560176   -0.0357704    0.0768247 
C     0.7697930    1.3901051    0.2223405 
C     1.7285840    0.5804556   -0.9034682 
H     1.2674694    1.9432523    0.9340565 
H     0.0711103    2.0391161   -0.3351302 
C     2.1537924   -0.6026190   -0.0244135 
H     2.5808560    1.3088726   -1.1580696 
H     1.0472815    0.4210809   -1.7098744 
N     0.8297199   -1.0561764    0.6273436 
H    -0.3867490    0.3812729    1.8778199 
H     2.8979889   -0.4258554    0.5422375 
H     2.5031219   -1.4513125   -0.7736859 
O    -2.2297815    0.8047444    0.0038648 
O    -1.3834500   -1.3042908   -0.4996560 
H    -0.5366414   -1.6829866   -0.2759278 
H     1.0220287   -1.4378731    1.5407420 
