17
Compound 055 optimized with r2SCAN-3c
C    -0.0478970    0.1984012    0.7616901 
C    -1.3763652   -0.0334857    0.0179639 
C     0.7312845    1.3718619    0.1402765 
C     1.6530868    0.6655759   -0.8585937 
H     1.3257979    1.8726271    0.9129736 
H     0.0599794    2.1068291   -0.3092969 
C     2.0756851   -0.5827085   -0.0867483 
H     2.5067037    1.2756542   -1.1653832 
H     1.0933142    0.3832643   -1.7589577 
N     0.8329760   -0.9894800    0.6180798 
H    -0.3122753    0.3986181    1.8074107 
H     2.8802937   -0.3329216    0.6225012 
H     2.4317311   -1.3899630   -0.7365876 
O    -2.2445386    0.8023429   -0.0347213 
O    -1.4722436   -1.2379078   -0.5617100 
H    -0.6043674   -1.6684791   -0.3441111 
H     1.0292809   -1.4248671    1.5098529 
