18
Compound 081, distorted structure 01
SI   -1.5008567   -0.0974940   -0.5994235 
O    -0.3149739    0.0606609    0.5742391 
SI    1.3121543    0.0642920    0.6991759 
C     2.0216022    1.5352726   -0.2030611 
C     2.0131727   -1.5300136    0.0763995 
H     1.5954314    0.2178496    2.1667603 
H     3.1107074    1.5826856   -0.0669810 
H     1.6017562    2.4636304    0.1275940 
H     1.8377974    1.4465829   -1.2921374 
H     1.5847060   -2.3817401    0.5829931 
H     3.0941055   -1.5743252    0.2472255 
H     1.8432578   -1.6389398   -1.0069251 
C    -3.1559580    0.0899674    0.1960089 
H    -1.3572555   -1.4119744   -1.2473657 
H    -1.2924408    0.9731331   -1.6295483 
H    -3.2689405    1.0711506    0.6823684 
H    -3.3134344   -0.6809940    0.9699328 
H    -3.9500239    0.0085915   -0.5458865 
