10
Compound 030, distorted structure 02
C     1.9521463    0.0540733    0.0098250 
C     0.6922172   -0.7706503   -0.0077729 
N    -0.5786338    0.0380498   -0.0047779 
O    -1.6388649   -0.6270275   -0.0033717 
O    -0.4455653    1.2460169    0.0103349 
H     2.0076661    0.6707985   -0.8623276 
H     2.8635694   -0.6134353    0.0254111 
H     2.0254769    0.7022209    0.8557774 
H     0.5988435   -1.4505977    0.8711889 
H     0.6583645   -1.4323670   -0.8682081 
