10
Compound 030, distorted structure 05
C     1.9210826    0.0921720   -0.0115099 
C     0.7084436   -0.8024055   -0.0064286 
N    -0.5004943    0.0172435    0.0375131 
O    -1.6246087   -0.5576466    0.0057334 
O    -0.4960037    1.1887097   -0.0134745 
H     2.0608211    0.6355513   -0.8902844 
H     2.8203641   -0.5745123    0.0239534 
H     2.0041152    0.7336612    0.9136353 
H     0.6199797   -1.3671689    0.8216497 
H     0.6100434   -1.4513815   -0.9438742 
