Compound 030, distorted structure 02
 OpenBabel12102416353D

 10  9  0  0  0  0  0  0  0  0999 V2000
    1.9521    0.0541    0.0098 C   0  0  0  0  0  0  0  0  0  0  0  0
    0.6922   -0.7707   -0.0078 C   0  0  0  0  0  0  0  0  0  0  0  0
   -0.5786    0.0380   -0.0048 N   0  0  0  0  0  0  0  0  0  0  0  0
   -1.6389   -0.6270   -0.0034 O   0  0  0  0  0  0  0  0  0  0  0  0
   -0.4456    1.2460    0.0103 O   0  0  0  0  0  0  0  0  0  0  0  0
    2.0077    0.6708   -0.8623 H   0  0  0  0  0  0  0  0  0  0  0  0
    2.8636   -0.6134    0.0254 H   0  0  0  0  0  0  0  0  0  0  0  0
    2.0255    0.7022    0.8558 H   0  0  0  0  0  0  0  0  0  0  0  0
    0.5988   -1.4506    0.8712 H   0  0  0  0  0  0  0  0  0  0  0  0
    0.6584   -1.4324   -0.8682 H   0  0  0  0  0  0  0  0  0  0  0  0
  1  7  1  0  0  0  0
  1  8  1  0  0  0  0
  2  3  1  0  0  0  0
  2  1  1  0  0  0  0
  2  9  1  0  0  0  0
  3  4  2  0  0  0  0
  3  5  2  0  0  0  0
  6  1  1  0  0  0  0
 10  2  1  0  0  0  0
M  END
$$$$
