Compound 030, distorted structure 08
 OpenBabel12102416353D

 10  9  0  0  0  0  0  0  0  0999 V2000
    2.0242    0.0401   -0.0810 C   0  0  0  0  0  0  0  0  0  0  0  0
    0.6235   -0.8491   -0.0737 C   0  0  0  0  0  0  0  0  0  0  0  0
   -0.6019    0.1155   -0.0511 N   0  0  0  0  0  0  0  0  0  0  0  0
   -1.5790   -0.6638    0.0440 O   0  0  0  0  0  0  0  0  0  0  0  0
   -0.4908    1.3265   -0.0735 O   0  0  0  0  0  0  0  0  0  0  0  0
    2.0413    0.6654   -0.8207 H   0  0  0  0  0  0  0  0  0  0  0  0
    2.8261   -0.6718   -0.0104 H   0  0  0  0  0  0  0  0  0  0  0  0
    2.0136    0.7859    0.8542 H   0  0  0  0  0  0  0  0  0  0  0  0
    0.5840   -1.4910    0.9270 H   0  0  0  0  0  0  0  0  0  0  0  0
    0.6613   -1.3950   -0.9291 H   0  0  0  0  0  0  0  0  0  0  0  0
  1  2  1  0  0  0  0
  1  7  1  0  0  0  0
  1  8  1  0  0  0  0
  2  3  1  0  0  0  0
  2  9  1  0  0  0  0
  3  4  2  0  0  0  0
  5  3  2  0  0  0  0
  6  1  1  0  0  0  0
 10  2  1  0  0  0  0
M  END
$$$$
