16
Compound 020, distorted structure 01
C    -2.1493033   -0.6746215   -0.0032245 
C    -2.1208625    0.7118562   -0.0003833 
C    -0.9194414    1.4215712    0.0096040 
C     0.2397883    0.6573334    0.0045538 
C     0.2453135   -0.7505819    0.0088493 
C    -0.9948219   -1.4251228   -0.0132556 
N     1.5616420    1.0669165   -0.0144463 
C     2.3653818   -0.0488111    0.0092736 
C     1.5999320   -1.1759408   -0.0010780 
H     1.8825211    2.0132624    0.0077184 
H    -3.0778560    1.2773156   -0.0102160 
H    -0.9037352    2.5126575    0.0077968 
H    -1.0180271   -2.4955165   -0.0064178 
H    -3.1153041   -1.1776254    0.0039042 
H     3.4591092    0.0834379    0.0133587 
H     1.9877811   -2.2005064   -0.0070007 
