Compound 002, distorted structure 09
 OpenBabel11072411423D

 12 12  0  0  0  0  0  0  0  0999 V2000
    0.7636   -0.7972   -0.1513 C   0  0  0  0  0  0  0  0  0  0  0  0
   -0.8007   -0.5399    0.2261 C   0  0  0  0  0  0  0  0  0  0  0  0
   -0.7217    0.8125   -0.0404 C   0  0  0  0  0  0  0  0  0  0  0  0
    0.8397    0.7041    0.0360 C   0  0  0  0  0  0  0  0  0  0  0  0
    0.7753   -0.9990   -1.1186 H   0  0  0  0  0  0  0  0  0  0  0  0
    1.1727   -1.6378    0.3775 H   0  0  0  0  0  0  0  0  0  0  0  0
   -1.1111   -0.9325    1.2826 H   0  0  0  0  0  0  0  0  0  0  0  0
   -1.6008   -1.1450   -0.4382 H   0  0  0  0  0  0  0  0  0  0  0  0
   -1.2042    1.5593    0.4057 H   0  0  0  0  0  0  0  0  0  0  0  0
   -0.7182    1.0267   -1.1178 H   0  0  0  0  0  0  0  0  0  0  0  0
    1.1046    0.7334    1.1748 H   0  0  0  0  0  0  0  0  0  0  0  0
    1.5377    1.2230   -0.5447 H   0  0  0  0  0  0  0  0  0  0  0  0
  1  4  1  0  0  0  0
  1  2  1  0  0  0  0
  1  6  1  0  0  0  0
  2  7  1  0  0  0  0
  3  4  1  0  0  0  0
  3  2  1  0  0  0  0
  3  9  1  0  0  0  0
  4 11  1  0  0  0  0
  5  1  1  0  0  0  0
  8  2  1  0  0  0  0
 10  3  1  0  0  0  0
 12  4  1  0  0  0  0
M  END
$$$$
