Compound 002, distorted structure 01
 OpenBabel11072411423D

 12 12  0  0  0  0  0  0  0  0999 V2000
    0.6625   -0.8425   -0.1183 C   0  0  0  0  0  0  0  0  0  0  0  0
   -0.8708   -0.6773    0.1454 C   0  0  0  0  0  0  0  0  0  0  0  0
   -0.6723    0.8642   -0.1322 C   0  0  0  0  0  0  0  0  0  0  0  0
    0.8493    0.6530    0.1316 C   0  0  0  0  0  0  0  0  0  0  0  0
    0.8577   -1.0768   -1.1780 H   0  0  0  0  0  0  0  0  0  0  0  0
    1.1996   -1.5568    0.4830 H   0  0  0  0  0  0  0  0  0  0  0  0
   -1.1097   -0.8337    1.1833 H   0  0  0  0  0  0  0  0  0  0  0  0
   -1.5438   -1.2055   -0.4981 H   0  0  0  0  0  0  0  0  0  0  0  0
   -1.2170    1.5710    0.4817 H   0  0  0  0  0  0  0  0  0  0  0  0
   -0.8475    1.0788   -1.1794 H   0  0  0  0  0  0  0  0  0  0  0  0
    1.1151    0.8330    1.1886 H   0  0  0  0  0  0  0  0  0  0  0  0
    1.5627    1.2102   -0.4742 H   0  0  0  0  0  0  0  0  0  0  0  0
  1  4  1  0  0  0  0
  1  2  1  0  0  0  0
  1  6  1  0  0  0  0
  2  7  1  0  0  0  0
  3  4  1  0  0  0  0
  3  2  1  0  0  0  0
  3  9  1  0  0  0  0
  4 11  1  0  0  0  0
  5  1  1  0  0  0  0
  8  2  1  0  0  0  0
 10  3  1  0  0  0  0
 12  4  1  0  0  0  0
M  END
$$$$
