Compound 002, distorted structure 03
 OpenBabel11072411423D

 12 12  0  0  0  0  0  0  0  0999 V2000
    0.6178   -0.8363   -0.1194 C   0  0  0  0  0  0  0  0  0  0  0  0
   -0.8379   -0.7001    0.1227 C   0  0  0  0  0  0  0  0  0  0  0  0
   -0.6746    0.8308   -0.1197 C   0  0  0  0  0  0  0  0  0  0  0  0
    0.8194    0.6265    0.1115 C   0  0  0  0  0  0  0  0  0  0  0  0
    0.8131   -1.1286   -1.2147 H   0  0  0  0  0  0  0  0  0  0  0  0
    1.1664   -1.5987    0.4602 H   0  0  0  0  0  0  0  0  0  0  0  0
   -1.0929   -0.8591    1.1993 H   0  0  0  0  0  0  0  0  0  0  0  0
   -1.5611   -1.1660   -0.5172 H   0  0  0  0  0  0  0  0  0  0  0  0
   -1.2068    1.5635    0.4967 H   0  0  0  0  0  0  0  0  0  0  0  0
   -0.8452    1.1419   -1.1529 H   0  0  0  0  0  0  0  0  0  0  0  0
    1.1010    0.8296    1.1976 H   0  0  0  0  0  0  0  0  0  0  0  0
    1.5784    1.1971   -0.5397 H   0  0  0  0  0  0  0  0  0  0  0  0
  1  4  1  0  0  0  0
  1  2  1  0  0  0  0
  1  6  1  0  0  0  0
  2  7  1  0  0  0  0
  3  4  1  0  0  0  0
  3  2  1  0  0  0  0
  3  9  1  0  0  0  0
  4 11  1  0  0  0  0
  5  1  1  0  0  0  0
  8  2  1  0  0  0  0
 10  3  1  0  0  0  0
 12  4  1  0  0  0  0
M  END
$$$$
