Compound 003, distorted structure 06
 OpenBabel11072411413D

 12 12  0  0  0  0  0  0  0  0999 V2000
   -2.5002    0.0190   -0.0494 H   0  0  0  0  0  0  0  0  0  0  0  0
   -1.4483   -0.0698   -0.0284 C   0  0  0  0  0  0  0  0  0  0  0  0
   -0.7796    1.1227    0.0355 C   0  0  0  0  0  0  0  0  0  0  0  0
    0.6106    1.2678    0.0521 C   0  0  0  0  0  0  0  0  0  0  0  0
    1.3708   -0.0184   -0.0431 C   0  0  0  0  0  0  0  0  0  0  0  0
    0.7142   -1.1339    0.0504 C   0  0  0  0  0  0  0  0  0  0  0  0
   -0.7117   -1.2666   -0.0204 C   0  0  0  0  0  0  0  0  0  0  0  0
   -1.1687   -2.1748   -0.0357 H   0  0  0  0  0  0  0  0  0  0  0  0
    1.3487   -2.0848    0.0482 H   0  0  0  0  0  0  0  0  0  0  0  0
    2.4651   -0.0322   -0.0325 H   0  0  0  0  0  0  0  0  0  0  0  0
    1.2018    2.1366    0.0362 H   0  0  0  0  0  0  0  0  0  0  0  0
   -1.2350    2.2002    0.0260 H   0  0  0  0  0  0  0  0  0  0  0  0
  1  2  1  0  0  0  0
  2  7  2  0  0  0  0
  2  3  1  0  0  0  0
  3  4  2  0  0  0  0
  5 10  1  0  0  0  0
  5  6  2  0  0  0  0
  5  4  1  0  0  0  0
  7  6  1  0  0  0  0
  8  7  1  0  0  0  0
  9  6  1  0  0  0  0
 11  4  1  0  0  0  0
 12  3  1  0  0  0  0
M  END
$$$$
