Compound 003, distorted structure 03
 OpenBabel11072411413D

 12 12  0  0  0  0  0  0  0  0999 V2000
   -2.4597   -0.0453    0.0152 H   0  0  0  0  0  0  0  0  0  0  0  0
   -1.4080   -0.0079   -0.0136 C   0  0  0  0  0  0  0  0  0  0  0  0
   -0.7116    1.2068    0.0238 C   0  0  0  0  0  0  0  0  0  0  0  0
    0.7098    1.2420   -0.0268 C   0  0  0  0  0  0  0  0  0  0  0  0
    1.3592    0.0401   -0.0281 C   0  0  0  0  0  0  0  0  0  0  0  0
    0.7040   -1.1506   -0.0387 C   0  0  0  0  0  0  0  0  0  0  0  0
   -0.6837   -1.1914   -0.0201 C   0  0  0  0  0  0  0  0  0  0  0  0
   -1.1811   -2.1845   -0.0149 H   0  0  0  0  0  0  0  0  0  0  0  0
    1.2312   -2.1279    0.0013 H   0  0  0  0  0  0  0  0  0  0  0  0
    2.4565    0.0191    0.0074 H   0  0  0  0  0  0  0  0  0  0  0  0
    1.2057    2.1381   -0.0397 H   0  0  0  0  0  0  0  0  0  0  0  0
   -1.2959    2.1272   -0.0363 H   0  0  0  0  0  0  0  0  0  0  0  0
  2  1  1  0  0  0  0
  2  3  1  0  0  0  0
  4  3  2  0  0  0  0
  5  4  1  0  0  0  0
  5 10  1  0  0  0  0
  6  5  2  0  0  0  0
  6  7  1  0  0  0  0
  6  9  1  0  0  0  0
  7  8  1  0  0  0  0
  7  2  2  0  0  0  0
 11  4  1  0  0  0  0
 12  3  1  0  0  0  0
M  END
$$$$
