Compound 004, distorted structure 09
 OpenBabel11072411403D

 13 13  0  0  0  0  0  0  0  0999 V2000
    0.1177    1.3249    0.2514 C   0  0  0  0  0  0  0  0  0  0  0  0
   -1.2594    0.2899   -0.0633 C   0  0  0  0  0  0  0  0  0  0  0  0
   -0.7540   -1.1119    0.0187 C   0  0  0  0  0  0  0  0  0  0  0  0
    0.7578   -1.0224    0.0773 C   0  0  0  0  0  0  0  0  0  0  0  0
    1.2508    0.4002   -0.0090 C   0  0  0  0  0  0  0  0  0  0  0  0
   -0.0016    1.6155    1.3037 H   0  0  0  0  0  0  0  0  0  0  0  0
   -0.0707    2.2289   -0.3800 H   0  0  0  0  0  0  0  0  0  0  0  0
   -1.5982    0.5134   -1.0503 H   0  0  0  0  0  0  0  0  0  0  0  0
   -1.9609    0.6464    0.6573 H   0  0  0  0  0  0  0  0  0  0  0  0
   -1.3204   -2.0501    0.1884 H   0  0  0  0  0  0  0  0  0  0  0  0
    1.3286   -2.0581    0.2552 H   0  0  0  0  0  0  0  0  0  0  0  0
    1.6535    0.4545   -1.1654 H   0  0  0  0  0  0  0  0  0  0  0  0
    2.1422    0.5434    0.4841 H   0  0  0  0  0  0  0  0  0  0  0  0
  1  6  1  0  0  0  0
  2  3  1  0  0  0  0
  2  1  1  0  0  0  0
  2  9  1  0  0  0  0
  3  4  2  0  0  0  0
  3 10  1  0  0  0  0
  4 11  1  0  0  0  0
  5  4  1  0  0  0  0
  5  1  1  0  0  0  0
  5 13  1  0  0  0  0
  7  1  1  0  0  0  0
  8  2  1  0  0  0  0
 12  5  1  0  0  0  0
M  END
$$$$
