Compound 005, distorted structure 06
 OpenBabel11072411403D

 13 12  0  0  0  0  0  0  0  0999 V2000
    1.1740   -0.3423   -0.4418 C   0  0  0  0  0  0  0  0  0  0  0  0
   -0.0266   -0.4246    0.0279 C   0  0  0  0  0  0  0  0  0  0  0  0
   -1.2782   -0.3654    0.4410 C   0  0  0  0  0  0  0  0  0  0  0  0
    1.4919   -1.1435   -1.2377 H   0  0  0  0  0  0  0  0  0  0  0  0
    2.3710    0.5034    0.2709 C   0  0  0  0  0  0  0  0  0  0  0  0
   -1.5816   -1.1203    1.2312 H   0  0  0  0  0  0  0  0  0  0  0  0
   -2.3739    0.5372   -0.2783 C   0  0  0  0  0  0  0  0  0  0  0  0
    1.8964    1.1377    1.0059 H   0  0  0  0  0  0  0  0  0  0  0  0
    2.6976    1.1559   -0.4742 H   0  0  0  0  0  0  0  0  0  0  0  0
    3.1329   -0.1148    0.6188 H   0  0  0  0  0  0  0  0  0  0  0  0
   -3.1073   -0.1361   -0.6481 H   0  0  0  0  0  0  0  0  0  0  0  0
   -1.9956    1.1491   -0.9338 H   0  0  0  0  0  0  0  0  0  0  0  0
   -2.8495    1.1550    0.5167 H   0  0  0  0  0  0  0  0  0  0  0  0
  1  2  2  0  0  0  0
  1  5  1  0  0  0  0
  2  3  2  0  0  0  0
  3  6  1  0  0  0  0
  4  1  1  0  0  0  0
  5 10  1  0  0  0  0
  5  8  1  0  0  0  0
  7  3  1  0  0  0  0
  7 13  1  0  0  0  0
  9  5  1  0  0  0  0
 11  7  1  0  0  0  0
 12  7  1  0  0  0  0
M  END
$$$$
