Compound 005, distorted structure 02
 OpenBabel11072411403D

 13 12  0  0  0  0  0  0  0  0999 V2000
    1.2391   -0.3719   -0.3965 C   0  0  0  0  0  0  0  0  0  0  0  0
    0.0249   -0.3693    0.0176 C   0  0  0  0  0  0  0  0  0  0  0  0
   -1.2182   -0.3768    0.4121 C   0  0  0  0  0  0  0  0  0  0  0  0
    1.5452   -1.0670   -1.1672 H   0  0  0  0  0  0  0  0  0  0  0  0
    2.2977    0.5203    0.2002 C   0  0  0  0  0  0  0  0  0  0  0  0
   -1.5414   -1.0724    1.1647 H   0  0  0  0  0  0  0  0  0  0  0  0
   -2.3302    0.5169   -0.1742 C   0  0  0  0  0  0  0  0  0  0  0  0
    1.9206    1.1209    0.9680 H   0  0  0  0  0  0  0  0  0  0  0  0
    2.7448    1.1547   -0.5619 H   0  0  0  0  0  0  0  0  0  0  0  0
    3.1321   -0.1277    0.6461 H   0  0  0  0  0  0  0  0  0  0  0  0
   -3.1541   -0.1388   -0.6237 H   0  0  0  0  0  0  0  0  0  0  0  0
   -1.9152    1.1315   -0.9928 H   0  0  0  0  0  0  0  0  0  0  0  0
   -2.7832    1.1044    0.5874 H   0  0  0  0  0  0  0  0  0  0  0  0
  1  2  2  0  0  0  0
  1  5  1  0  0  0  0
  2  3  2  0  0  0  0
  3  6  1  0  0  0  0
  4  1  1  0  0  0  0
  5 10  1  0  0  0  0
  5  8  1  0  0  0  0
  7  3  1  0  0  0  0
  7 13  1  0  0  0  0
  9  5  1  0  0  0  0
 11  7  1  0  0  0  0
 12  7  1  0  0  0  0
M  END
$$$$
