Compound 005, distorted structure 08
 OpenBabel11072411403D

 13 12  0  0  0  0  0  0  0  0999 V2000
    1.1468   -0.4435   -0.3506 C   0  0  0  0  0  0  0  0  0  0  0  0
   -0.0079   -0.3619    0.0010 C   0  0  0  0  0  0  0  0  0  0  0  0
   -1.3101   -0.3386    0.4028 C   0  0  0  0  0  0  0  0  0  0  0  0
    1.5304   -1.0542   -1.2480 H   0  0  0  0  0  0  0  0  0  0  0  0
    2.3529    0.5067    0.1398 C   0  0  0  0  0  0  0  0  0  0  0  0
   -1.6230   -1.0851    1.1308 H   0  0  0  0  0  0  0  0  0  0  0  0
   -2.3154    0.4456   -0.1370 C   0  0  0  0  0  0  0  0  0  0  0  0
    1.9855    1.2273    1.0165 H   0  0  0  0  0  0  0  0  0  0  0  0
    2.7927    1.1617   -0.5329 H   0  0  0  0  0  0  0  0  0  0  0  0
    3.1152   -0.1427    0.5177 H   0  0  0  0  0  0  0  0  0  0  0  0
   -3.0434   -0.2124   -0.5674 H   0  0  0  0  0  0  0  0  0  0  0  0
   -1.8380    1.2262   -1.0681 H   0  0  0  0  0  0  0  0  0  0  0  0
   -2.8013    1.1751    0.6140 H   0  0  0  0  0  0  0  0  0  0  0  0
  1  2  2  0  0  0  0
  1  5  1  0  0  0  0
  2  3  2  0  0  0  0
  3  6  1  0  0  0  0
  4  1  1  0  0  0  0
  5 10  1  0  0  0  0
  5  8  1  0  0  0  0
  7  3  1  0  0  0  0
  7 13  1  0  0  0  0
  9  5  1  0  0  0  0
 11  7  1  0  0  0  0
 12  7  1  0  0  0  0
M  END
$$$$
