Compound 006 optimized with r2SCAN-3c
 OpenBabel11072411403D

 14 15  0  0  1  0  0  0  0  0999 V2000
   -0.6926    0.7575    0.4322 C   0  0  1  0  0  0  0  0  0  0  0  0
   -0.6751   -0.7625    0.3892 C   0  0  2  0  0  0  0  0  0  0  0  0
    0.7452   -1.1921    0.0330 C   0  0  0  0  0  0  0  0  0  0  0  0
    1.4594    0.1161   -0.2218 C   0  0  0  0  0  0  0  0  0  0  0  0
    0.7708   -1.8539   -0.8436 H   0  0  0  0  0  0  0  0  0  0  0  0
    1.2168   -1.7441    0.8580 H   0  0  0  0  0  0  0  0  0  0  0  0
    0.6812    1.1704    0.0367 C   0  0  0  0  0  0  0  0  0  0  0  0
   -1.4565    0.0056   -0.6377 C   0  0  0  0  0  0  0  0  0  0  0  0
   -1.2464    1.3132    1.1835 H   0  0  0  0  0  0  0  0  0  0  0  0
   -1.0687    0.0601   -1.6519 H   0  0  0  0  0  0  0  0  0  0  0  0
   -2.5393   -0.0242   -0.5548 H   0  0  0  0  0  0  0  0  0  0  0  0
   -1.2315   -1.3374    1.1226 H   0  0  0  0  0  0  0  0  0  0  0  0
    2.4790    0.1673   -0.5910 H   0  0  0  0  0  0  0  0  0  0  0  0
    0.9811    2.2091   -0.0621 H   0  0  0  0  0  0  0  0  0  0  0  0
  1  9  1  1  0  0  0
  2  1  1  0  0  0  0
  2 12  1  1  0  0  0
  3  2  1  0  0  0  0
  3  6  1  0  0  0  0
  4  3  1  0  0  0  0
  4  7  2  0  0  0  0
  5  3  1  0  0  0  0
  7  1  1  0  0  0  0
  8 11  1  0  0  0  0
  8  2  1  0  0  0  0
  8  1  1  0  0  0  0
 10  8  1  0  0  0  0
 13  4  1  0  0  0  0
 14  7  1  0  0  0  0
M  END
$$$$
