Compound 006, distorted structure 02
 OpenBabel11072411413D

 14 15  0  0  1  0  0  0  0  0999 V2000
   -0.6809    0.7581    0.4475 C   0  0  1  0  0  0  0  0  0  0  0  0
   -0.6594   -0.7491    0.3847 C   0  0  2  0  0  0  0  0  0  0  0  0
    0.7225   -1.1901    0.0126 C   0  0  0  0  0  0  0  0  0  0  0  0
    1.4696    0.1375   -0.2053 C   0  0  0  0  0  0  0  0  0  0  0  0
    0.7798   -1.8630   -0.8250 H   0  0  0  0  0  0  0  0  0  0  0  0
    1.2198   -1.7469    0.8492 H   0  0  0  0  0  0  0  0  0  0  0  0
    0.6999    1.1470    0.0278 C   0  0  0  0  0  0  0  0  0  0  0  0
   -1.4639    0.0235   -0.6315 C   0  0  0  0  0  0  0  0  0  0  0  0
   -1.2665    1.2924    1.2004 H   0  0  0  0  0  0  0  0  0  0  0  0
   -1.0851    0.0499   -1.6639 H   0  0  0  0  0  0  0  0  0  0  0  0
   -2.5544   -0.0124   -0.5360 H   0  0  0  0  0  0  0  0  0  0  0  0
   -1.2185   -1.3585    1.1325 H   0  0  0  0  0  0  0  0  0  0  0  0
    2.4999    0.1736   -0.5930 H   0  0  0  0  0  0  0  0  0  0  0  0
    0.9661    2.2229   -0.0590 H   0  0  0  0  0  0  0  0  0  0  0  0
  1  9  1  1  0  0  0
  2  1  1  0  0  0  0
  2 12  1  1  0  0  0
  3  2  1  0  0  0  0
  3  6  1  0  0  0  0
  4  3  1  0  0  0  0
  4  7  2  0  0  0  0
  5  3  1  0  0  0  0
  7  1  1  0  0  0  0
  8 11  1  0  0  0  0
  8  2  1  0  0  0  0
  8  1  1  0  0  0  0
 10  8  1  0  0  0  0
 13  4  1  0  0  0  0
 14  7  1  0  0  0  0
M  END
$$$$
