Compound 007, distorted structure 05
 OpenBabel11072411413D

 15 14  0  0  0  0  0  0  0  0999 V2000
    2.1162    0.0740   -0.0538 C   0  0  0  0  0  0  0  0  0  0  0  0
    0.7658    0.7127    0.0161 C   0  0  0  0  0  0  0  0  0  0  0  0
   -0.4648    0.0364    0.0080 C   0  0  0  0  0  0  0  0  0  0  0  0
   -0.5568   -1.4298   -0.0459 C   0  0  0  0  0  0  0  0  0  0  0  0
   -1.7099    0.7854    0.0401 C   0  0  0  0  0  0  0  0  0  0  0  0
    2.6460    0.4490   -0.9385 H   0  0  0  0  0  0  0  0  0  0  0  0
    2.1230   -0.9579   -0.0393 H   0  0  0  0  0  0  0  0  0  0  0  0
    2.7121    0.4800    0.9105 H   0  0  0  0  0  0  0  0  0  0  0  0
    0.7069    1.7391    0.0277 H   0  0  0  0  0  0  0  0  0  0  0  0
    0.3517   -1.9751    0.0065 H   0  0  0  0  0  0  0  0  0  0  0  0
   -1.2247   -1.8348   -0.8554 H   0  0  0  0  0  0  0  0  0  0  0  0
   -1.1351   -1.8464    0.8572 H   0  0  0  0  0  0  0  0  0  0  0  0
   -2.3666    0.5574   -0.8628 H   0  0  0  0  0  0  0  0  0  0  0  0
   -1.5694    1.8626   -0.0255 H   0  0  0  0  0  0  0  0  0  0  0  0
   -2.3776    0.4634    0.8654 H   0  0  0  0  0  0  0  0  0  0  0  0
  1  7  1  0  0  0  0
  1  2  1  0  0  0  0
  1  8  1  0  0  0  0
  2  9  1  0  0  0  0
  3  2  2  0  0  0  0
  3  5  1  0  0  0  0
  4 10  1  0  0  0  0
  4  3  1  0  0  0  0
  4 12  1  0  0  0  0
  5 15  1  0  0  0  0
  6  1  1  0  0  0  0
 11  4  1  0  0  0  0
 13  5  1  0  0  0  0
 14  5  1  0  0  0  0
M  END
$$$$
