Compound 007, distorted structure 01
 OpenBabel11072411413D

 15 14  0  0  0  0  0  0  0  0999 V2000
    2.0941    0.1135   -0.0103 C   0  0  0  0  0  0  0  0  0  0  0  0
    0.7334    0.6599    0.0054 C   0  0  0  0  0  0  0  0  0  0  0  0
   -0.4444    0.0320    0.0020 C   0  0  0  0  0  0  0  0  0  0  0  0
   -0.5823   -1.4663   -0.0151 C   0  0  0  0  0  0  0  0  0  0  0  0
   -1.7673    0.7738    0.0145 C   0  0  0  0  0  0  0  0  0  0  0  0
    2.6739    0.4612   -0.8986 H   0  0  0  0  0  0  0  0  0  0  0  0
    2.1070   -0.9970   -0.0029 H   0  0  0  0  0  0  0  0  0  0  0  0
    2.6523    0.4664    0.8636 H   0  0  0  0  0  0  0  0  0  0  0  0
    0.6841    1.7567   -0.0019 H   0  0  0  0  0  0  0  0  0  0  0  0
    0.3570   -1.9924   -0.0329 H   0  0  0  0  0  0  0  0  0  0  0  0
   -1.1961   -1.7887   -0.8678 H   0  0  0  0  0  0  0  0  0  0  0  0
   -1.1441   -1.7861    0.8885 H   0  0  0  0  0  0  0  0  0  0  0  0
   -2.3584    0.5303   -0.8599 H   0  0  0  0  0  0  0  0  0  0  0  0
   -1.6103    1.8404    0.0088 H   0  0  0  0  0  0  0  0  0  0  0  0
   -2.3624    0.4907    0.8741 H   0  0  0  0  0  0  0  0  0  0  0  0
  1  7  1  0  0  0  0
  1  2  1  0  0  0  0
  1  8  1  0  0  0  0
  3  2  2  0  0  0  0
  3  5  1  0  0  0  0
  4  3  1  0  0  0  0
  4 12  1  0  0  0  0
  5 15  1  0  0  0  0
  6  1  1  0  0  0  0
  9  2  1  0  0  0  0
 10  4  1  0  0  0  0
 11  4  1  0  0  0  0
 13  5  1  0  0  0  0
 14  5  1  0  0  0  0
M  END
$$$$
