Compound 007, distorted structure 07
 OpenBabel11072411413D

 15 14  0  0  0  0  0  0  0  0999 V2000
    2.1058    0.1806    0.0818 C   0  0  0  0  0  0  0  0  0  0  0  0
    0.8053    0.7007    0.0794 C   0  0  0  0  0  3  0  0  0  0  0  0
   -0.4005    0.1105   -0.0321 C   0  0  0  0  0  3  0  0  0  0  0  0
   -0.6080   -1.4416   -0.0087 C   0  0  0  0  0  0  0  0  0  0  0  0
   -1.6701    0.8052    0.0286 C   0  0  0  0  0  0  0  0  0  0  0  0
    2.6449    0.4316   -0.8663 H   0  0  0  0  0  0  0  0  0  0  0  0
    2.0765   -0.9835    0.0426 H   0  0  0  0  0  0  0  0  0  0  0  0
    2.6394    0.4835    0.9180 H   0  0  0  0  0  0  0  0  0  0  0  0
    0.6620    1.6938   -0.0838 H   0  0  0  0  0  0  0  0  0  0  0  0
    0.2810   -2.0512    0.0455 H   0  0  0  0  0  0  0  0  0  0  0  0
   -1.1187   -1.8556   -0.9034 H   0  0  0  0  0  0  0  0  0  0  0  0
   -1.1866   -1.8794    0.9383 H   0  0  0  0  0  0  0  0  0  0  0  0
   -2.2709    0.5750   -0.9383 H   0  0  0  0  0  0  0  0  0  0  0  0
   -1.6113    1.8419   -0.0657 H   0  0  0  0  0  0  0  0  0  0  0  0
   -2.4138    0.4645    0.8564 H   0  0  0  0  0  0  0  0  0  0  0  0
  1  8  1  0  0  0  0
  2  1  1  0  0  0  0
  3  4  1  0  0  0  0
  3  5  1  0  0  0  0
  3  2  1  0  0  0  0
  4 10  1  0  0  0  0
  4 12  1  0  0  0  0
  5 15  1  0  0  0  0
  6  1  1  0  0  0  0
  7  1  1  0  0  0  0
  9  2  1  0  0  0  0
 11  4  1  0  0  0  0
 13  5  1  0  0  0  0
 14  5  1  0  0  0  0
M  END
$$$$
