Compound 007, distorted structure 06
 OpenBabel11072411413D

 15 14  0  0  0  0  0  0  0  0999 V2000
    2.1169    0.1115    0.0007 C   0  0  0  0  0  0  0  0  0  0  0  0
    0.7552    0.6387   -0.0268 C   0  0  0  0  0  0  0  0  0  0  0  0
   -0.5064    0.0382   -0.0466 C   0  0  0  0  0  0  0  0  0  0  0  0
   -0.5987   -1.4159   -0.0141 C   0  0  0  0  0  0  0  0  0  0  0  0
   -1.7748    0.7590   -0.0422 C   0  0  0  0  0  0  0  0  0  0  0  0
    2.6051    0.4150   -0.8560 H   0  0  0  0  0  0  0  0  0  0  0  0
    2.0987   -0.9523   -0.0212 H   0  0  0  0  0  0  0  0  0  0  0  0
    2.6358    0.4328    0.8648 H   0  0  0  0  0  0  0  0  0  0  0  0
    0.7013    1.7626   -0.0497 H   0  0  0  0  0  0  0  0  0  0  0  0
    0.4046   -1.9437    0.0083 H   0  0  0  0  0  0  0  0  0  0  0  0
   -1.1520   -1.8406   -0.8341 H   0  0  0  0  0  0  0  0  0  0  0  0
   -1.1470   -1.8613    0.8472 H   0  0  0  0  0  0  0  0  0  0  0  0
   -2.2968    0.4691   -0.8130 H   0  0  0  0  0  0  0  0  0  0  0  0
   -1.5909    1.8810    0.0255 H   0  0  0  0  0  0  0  0  0  0  0  0
   -2.3761    0.5331    0.9350 H   0  0  0  0  0  0  0  0  0  0  0  0
  1  8  1  0  0  0  0
  2  1  1  0  0  0  0
  3  5  1  0  0  0  0
  3  2  2  0  0  0  0
  3  4  1  0  0  0  0
  4 10  1  0  0  0  0
  4 12  1  0  0  0  0
  5 14  1  0  0  0  0
  5 15  1  0  0  0  0
  6  1  1  0  0  0  0
  7  1  1  0  0  0  0
  9  2  1  0  0  0  0
 11  4  1  0  0  0  0
 13  5  1  0  0  0  0
M  END
$$$$
