Compound 008, distorted structure 08
 OpenBabel11072411413D

 15 16  0  0  1  0  0  0  0  0999 V2000
   -1.1510   -0.7111    0.5166 C   0  0  0  0  0  3  0  0  0  0  0  0
   -1.1720    0.7235    0.4608 C   0  0  0  0  0  3  0  0  0  0  0  0
    0.0472    1.1662   -0.3330 C   0  0  2  0  0  0  0  0  0  0  0  0
   -0.0628    0.0278   -1.4140 C   0  0  0  0  0  0  0  0  0  0  0  0
   -0.0590   -1.1177   -0.3273 C   0  0  1  0  0  0  0  0  0  0  0  0
    0.9424   -0.0452   -2.0263 H   0  0  0  0  0  0  0  0  0  0  0  0
   -0.9766    0.0176   -1.9955 H   0  0  0  0  0  0  0  0  0  0  0  0
   -1.9113   -1.3772    0.9295 H   0  0  0  0  0  0  0  0  0  0  0  0
   -1.8285    1.2731    1.0255 H   0  0  0  0  0  0  0  0  0  0  0  0
    1.2007    0.7254    0.5486 C   0  0  0  0  0  0  0  0  0  0  0  0
    0.0670    2.2007   -0.7121 H   0  0  0  0  0  0  0  0  0  0  0  0
    1.1903   -0.7424    0.5004 C   0  0  0  0  0  0  0  0  0  0  0  0
    0.0036   -2.0630   -0.6084 H   0  0  0  0  0  0  0  0  0  0  0  0
    1.9044   -1.3984    0.9885 H   0  0  0  0  0  0  0  0  0  0  0  0
    1.9235    1.2410    0.9992 H   0  0  0  0  0  0  0  0  0  0  0  0
  1  8  1  0  0  0  0
  2  1  1  0  0  0  0
  2  9  1  0  0  0  0
  3 11  1  6  0  0  0
  3  2  1  0  0  0  0
  3 10  1  0  0  0  0
  4  3  1  0  0  0  0
  4  5  1  0  0  0  0
  5 13  1  6  0  0  0
  5 12  1  0  0  0  0
  5  1  1  0  0  0  0
  6  4  1  0  0  0  0
  7  4  1  0  0  0  0
 10 15  1  0  0  0  0
 12 10  2  0  0  0  0
 12 14  1  0  0  0  0
M  END
$$$$
