Compound 009, distorted structure 07
 OpenBabel11072411423D

 17 17  0  0  0  0  0  0  0  0999 V2000
   -0.6462    1.2643    0.4945 C   0  0  0  0  0  0  0  0  0  0  0  0
    0.5327    1.2919   -0.5450 C   0  0  0  0  0  0  0  0  0  0  0  0
    1.8002    0.3004   -0.1399 C   0  0  0  0  0  0  0  0  0  0  0  0
    1.0133    2.1788   -0.5327 H   0  0  0  0  0  0  0  0  0  0  0  0
    0.2453    1.0065   -1.4952 H   0  0  0  0  0  0  0  0  0  0  0  0
    1.2411   -1.0376    0.3243 C   0  0  0  0  0  3  0  0  0  0  0  0
    2.3900    0.7027    0.7137 H   0  0  0  0  0  0  0  0  0  0  0  0
    2.3833    0.1739   -0.9257 H   0  0  0  0  0  0  0  0  0  0  0  0
   -0.0185   -1.4061   -0.0240 C   0  0  0  0  0  2  0  0  0  0  0  0
   -1.1624   -1.0336   -0.4091 C   0  0  0  0  0  3  0  0  0  0  0  0
   -1.7029    0.2864    0.1962 C   0  0  0  0  0  0  0  0  0  0  0  0
   -2.4060    0.1600    0.9981 H   0  0  0  0  0  0  0  0  0  0  0  0
   -2.3510    0.7203   -0.7209 H   0  0  0  0  0  0  0  0  0  0  0  0
   -0.9436    2.1937    0.6242 H   0  0  0  0  0  0  0  0  0  0  0  0
   -0.2648    0.9883    1.5187 H   0  0  0  0  0  0  0  0  0  0  0  0
   -1.7606   -1.5105   -1.1377 H   0  0  0  0  0  0  0  0  0  0  0  0
    1.7649   -1.5180    1.1627 H   0  0  0  0  0  0  0  0  0  0  0  0
  1 14  1  0  0  0  0
  1 15  1  0  0  0  0
  2  4  1  0  0  0  0
  2  3  1  0  0  0  0
  2  1  1  0  0  0  0
  3  6  1  0  0  0  0
  3  7  1  0  0  0  0
  5  2  1  0  0  0  0
  6 17  1  0  0  0  0
  8  3  1  0  0  0  0
  9  6  1  0  0  0  0
 10  9  1  0  0  0  0
 10 11  1  0  0  0  0
 11  1  1  0  0  0  0
 11 12  1  0  0  0  0
 13 11  1  0  0  0  0
 16 10  1  0  0  0  0
M  END
$$$$
