Compound 010, distorted structure 09
 OpenBabel11072411423D

 17 18  0  0  0  0  0  0  0  0999 V2000
   -1.7618   -0.6525    0.1619 C   0  0  0  0  0  0  0  0  0  0  0  0
   -1.6461    0.6714    0.1315 C   0  0  0  0  0  0  0  0  0  0  0  0
   -0.3207    1.3024   -0.0705 C   0  0  0  0  0  0  0  0  0  0  0  0
    0.4830    0.0051   -0.0153 C   0  0  0  0  0  0  0  0  0  0  0  0
   -0.1705    2.0406    0.5875 H   0  0  0  0  0  0  0  0  0  0  0  0
   -0.4273    1.6974   -1.0687 H   0  0  0  0  0  0  0  0  0  0  0  0
   -0.4586   -1.2321   -0.0855 C   0  0  0  0  0  0  0  0  0  0  0  0
   -0.1936   -2.0455    0.5572 H   0  0  0  0  0  0  0  0  0  0  0  0
   -0.2885   -1.7347   -1.1528 H   0  0  0  0  0  0  0  0  0  0  0  0
    1.6191   -0.0440    0.9755 C   0  0  0  0  0  0  0  0  0  0  0  0
    1.7931    0.0127   -0.6498 C   0  0  0  0  0  0  0  0  0  0  0  0
    1.9968   -0.9298    1.4068 H   0  0  0  0  0  0  0  0  0  0  0  0
    2.0271    0.9890    1.5130 H   0  0  0  0  0  0  0  0  0  0  0  0
    2.2574   -0.9904   -1.1786 H   0  0  0  0  0  0  0  0  0  0  0  0
    2.3369    0.9214   -1.0203 H   0  0  0  0  0  0  0  0  0  0  0  0
   -2.5251   -1.3666    0.3872 H   0  0  0  0  0  0  0  0  0  0  0  0
   -2.5130    1.2920    0.2277 H   0  0  0  0  0  0  0  0  0  0  0  0
  1 16  1  0  0  0  0
  2  1  2  0  0  0  0
  2 17  1  0  0  0  0
  3  4  1  0  0  0  0
  3  2  1  0  0  0  0
  3  5  1  0  0  0  0
  4 10  1  0  0  0  0
  6  3  1  0  0  0  0
  7  4  1  0  0  0  0
  7  1  1  0  0  0  0
  7  8  1  0  0  0  0
  9  7  1  0  0  0  0
 10 12  1  0  0  0  0
 10 13  1  0  0  0  0
 11  4  1  0  0  0  0
 11 10  1  0  0  0  0
 14 11  1  0  0  0  0
 15 11  1  0  0  0  0
M  END
$$$$
