Compound 010, distorted structure 05
 OpenBabel11072411423D

 17 18  0  0  0  0  0  0  0  0999 V2000
   -1.7569   -0.6485    0.1581 C   0  0  0  0  0  0  0  0  0  0  0  0
   -1.7223    0.7131    0.1897 C   0  0  0  0  0  0  0  0  0  0  0  0
   -0.3418    1.2308   -0.0782 C   0  0  0  0  0  0  0  0  0  0  0  0
    0.5383    0.0367   -0.0167 C   0  0  0  0  0  0  0  0  0  0  0  0
   -0.0837    1.9699    0.5510 H   0  0  0  0  0  0  0  0  0  0  0  0
   -0.3100    1.6596   -1.0714 H   0  0  0  0  0  0  0  0  0  0  0  0
   -0.4175   -1.1976   -0.0992 C   0  0  0  0  0  0  0  0  0  0  0  0
   -0.0977   -2.0700    0.6020 H   0  0  0  0  0  0  0  0  0  0  0  0
   -0.3854   -1.7335   -1.1522 H   0  0  0  0  0  0  0  0  0  0  0  0
    1.7553   -0.0042    0.9125 C   0  0  0  0  0  0  0  0  0  0  0  0
    1.8435   -0.0053   -0.5749 C   0  0  0  0  0  0  0  0  0  0  0  0
    1.9454   -0.8973    1.4179 H   0  0  0  0  0  0  0  0  0  0  0  0
    1.9884    0.8727    1.3738 H   0  0  0  0  0  0  0  0  0  0  0  0
    2.2127   -0.8585   -1.0914 H   0  0  0  0  0  0  0  0  0  0  0  0
    2.2118    0.9050   -1.1154 H   0  0  0  0  0  0  0  0  0  0  0  0
   -2.6611   -1.2368    0.3442 H   0  0  0  0  0  0  0  0  0  0  0  0
   -2.6380    1.3269    0.3286 H   0  0  0  0  0  0  0  0  0  0  0  0
  1  2  2  0  0  0  0
  1 16  1  0  0  0  0
  2 17  1  0  0  0  0
  3  4  1  0  0  0  0
  3  2  1  0  0  0  0
  3  5  1  0  0  0  0
  4 10  1  0  0  0  0
  6  3  1  0  0  0  0
  7  4  1  0  0  0  0
  7  1  1  0  0  0  0
  7  8  1  0  0  0  0
  9  7  1  0  0  0  0
 10 13  1  0  0  0  0
 10 12  1  0  0  0  0
 11  4  1  0  0  0  0
 11 10  1  0  0  0  0
 14 11  1  0  0  0  0
 15 11  1  0  0  0  0
M  END
$$$$
