Compound 010, distorted structure 01
 OpenBabel11072411423D

 17 18  0  0  0  0  0  0  0  0999 V2000
   -1.7424   -0.6632    0.1560 C   0  0  0  0  0  0  0  0  0  0  0  0
   -1.7421    0.6783    0.1770 C   0  0  0  0  0  0  0  0  0  0  0  0
   -0.3794    1.2325   -0.1127 C   0  0  0  0  0  0  0  0  0  0  0  0
    0.5261    0.0041   -0.0446 C   0  0  0  0  0  0  0  0  0  0  0  0
   -0.1005    2.0218    0.6005 H   0  0  0  0  0  0  0  0  0  0  0  0
   -0.3628    1.7121   -1.1140 H   0  0  0  0  0  0  0  0  0  0  0  0
   -0.4006   -1.2433   -0.1136 C   0  0  0  0  0  0  0  0  0  0  0  0
   -0.0941   -2.0015    0.5799 H   0  0  0  0  0  0  0  0  0  0  0  0
   -0.3589   -1.7002   -1.1380 H   0  0  0  0  0  0  0  0  0  0  0  0
    1.7028    0.0054    0.8764 C   0  0  0  0  0  0  0  0  0  0  0  0
    1.8957   -0.0053   -0.6352 C   0  0  0  0  0  0  0  0  0  0  0  0
    1.9264   -0.9105    1.4137 H   0  0  0  0  0  0  0  0  0  0  0  0
    1.9422    0.9047    1.4181 H   0  0  0  0  0  0  0  0  0  0  0  0
    2.2611   -0.9248   -1.1031 H   0  0  0  0  0  0  0  0  0  0  0  0
    2.2543    0.9110   -1.1092 H   0  0  0  0  0  0  0  0  0  0  0  0
   -2.6382   -1.2954    0.3049 H   0  0  0  0  0  0  0  0  0  0  0  0
   -2.6416    1.2917    0.3202 H   0  0  0  0  0  0  0  0  0  0  0  0
  1  2  2  0  0  0  0
  1 16  1  0  0  0  0
  2 17  1  0  0  0  0
  3  4  1  0  0  0  0
  3  2  1  0  0  0  0
  3  5  1  0  0  0  0
  4 10  1  0  0  0  0
  6  3  1  0  0  0  0
  7  4  1  0  0  0  0
  7  1  1  0  0  0  0
  7  8  1  0  0  0  0
  9  7  1  0  0  0  0
 10 12  1  0  0  0  0
 10 13  1  0  0  0  0
 11  4  1  0  0  0  0
 11 10  1  0  0  0  0
 14 11  1  0  0  0  0
 15 11  1  0  0  0  0
M  END
$$$$
