Compound 011, distorted structure 07
 OpenBabel11072411403D

 20 20  0  0  0  0  0  0  0  0999 V2000
   -1.5934    0.6674   -0.5115 C   0  0  0  0  0  0  0  0  0  0  0  0
   -1.5049   -0.6080   -0.2895 C   0  0  0  0  0  0  0  0  0  0  0  0
   -0.6591   -1.4376    0.5982 C   0  0  0  0  0  0  0  0  0  0  0  0
    0.7034   -1.8399   -0.0948 C   0  0  0  0  0  0  0  0  0  0  0  0
   -1.1107   -2.3444    0.9052 H   0  0  0  0  0  0  0  0  0  0  0  0
   -0.4330   -0.8964    1.6178 H   0  0  0  0  0  0  0  0  0  0  0  0
    1.5147   -0.7332   -0.5062 C   0  0  0  0  0  0  0  0  0  0  0  0
    0.4955   -2.4733   -0.9344 H   0  0  0  0  0  0  0  0  0  0  0  0
    1.2948   -2.3826    0.5911 H   0  0  0  0  0  0  0  0  0  0  0  0
    1.5974    0.6209   -0.3218 C   0  0  0  0  0  0  0  0  0  0  0  0
    0.6131    1.4400    0.6085 C   0  0  0  0  0  0  0  0  0  0  0  0
   -0.6241    1.7486    0.0500 C   0  0  0  0  0  0  0  0  0  0  0  0
    1.1858    2.2528    0.9765 H   0  0  0  0  0  0  0  0  0  0  0  0
    0.4481    0.8509    1.5882 H   0  0  0  0  0  0  0  0  0  0  0  0
   -0.4320    2.4617   -0.8700 H   0  0  0  0  0  0  0  0  0  0  0  0
   -1.2062    2.3793    0.7346 H   0  0  0  0  0  0  0  0  0  0  0  0
   -2.3104    1.0738   -1.1975 H   0  0  0  0  0  0  0  0  0  0  0  0
   -2.2741   -1.2012   -0.8029 H   0  0  0  0  0  0  0  0  0  0  0  0
    2.3177   -1.0082   -1.3101 H   0  0  0  0  0  0  0  0  0  0  0  0
    2.3119    1.2731   -0.8258 H   0  0  0  0  0  0  0  0  0  0  0  0
  1  2  2  0  0  0  0
  1 12  1  0  0  0  0
  2  3  1  0  0  0  0
  3  5  1  0  0  0  0
  3  6  1  0  0  0  0
  4  9  1  0  0  0  0
  4  3  1  0  0  0  0
  7 10  2  0  0  0  0
  7  4  1  0  0  0  0
  8  4  1  0  0  0  0
 10 11  1  0  0  0  0
 11 13  1  0  0  0  0
 11 14  1  0  0  0  0
 12 11  1  0  0  0  0
 12 16  1  0  0  0  0
 15 12  1  0  0  0  0
 17  1  1  0  0  0  0
 18  2  1  0  0  0  0
 19  7  1  0  0  0  0
 20 10  1  0  0  0  0
M  END
$$$$
