Compound 011, distorted structure 04
 OpenBabel11072411403D

 20 20  0  0  0  0  0  0  0  0999 V2000
   -1.5425    0.6677   -0.4947 C   0  0  0  0  0  0  0  0  0  0  0  0
   -1.5124   -0.6423   -0.2642 C   0  0  0  0  0  0  0  0  0  0  0  0
   -0.6268   -1.3986    0.6718 C   0  0  0  0  0  0  0  0  0  0  0  0
    0.6993   -1.7731   -0.1050 C   0  0  0  0  0  0  0  0  0  0  0  0
   -1.1803   -2.3589    0.8635 H   0  0  0  0  0  0  0  0  0  0  0  0
   -0.4670   -0.8337    1.5284 H   0  0  0  0  0  0  0  0  0  0  0  0
    1.6066   -0.6792   -0.5314 C   0  0  0  0  0  0  0  0  0  0  0  0
    0.4569   -2.3863   -0.9301 H   0  0  0  0  0  0  0  0  0  0  0  0
    1.2233   -2.4240    0.6018 H   0  0  0  0  0  0  0  0  0  0  0  0
    1.5396    0.6683   -0.2961 C   0  0  0  0  0  0  0  0  0  0  0  0
    0.6491    1.4221    0.6588 C   0  0  0  0  0  0  0  0  0  0  0  0
   -0.6725    1.8170   -0.0150 C   0  0  0  0  0  0  0  0  0  0  0  0
    1.1466    2.2977    0.9955 H   0  0  0  0  0  0  0  0  0  0  0  0
    0.4741    0.8549    1.5535 H   0  0  0  0  0  0  0  0  0  0  0  0
   -0.4990    2.4164   -0.7977 H   0  0  0  0  0  0  0  0  0  0  0  0
   -1.2905    2.3937    0.6632 H   0  0  0  0  0  0  0  0  0  0  0  0
   -2.3170    1.0487   -1.1680 H   0  0  0  0  0  0  0  0  0  0  0  0
   -2.3204   -1.1869   -0.7926 H   0  0  0  0  0  0  0  0  0  0  0  0
    2.3677   -1.0388   -1.2610 H   0  0  0  0  0  0  0  0  0  0  0  0
    2.2636    1.2253   -0.8281 H   0  0  0  0  0  0  0  0  0  0  0  0
  1  2  2  0  0  0  0
  1 12  1  0  0  0  0
  2  3  1  0  0  0  0
  3  5  1  0  0  0  0
  3  6  1  0  0  0  0
  4  9  1  0  0  0  0
  4  3  1  0  0  0  0
  7 10  2  0  0  0  0
  7  4  1  0  0  0  0
  8  4  1  0  0  0  0
 10 11  1  0  0  0  0
 11 13  1  0  0  0  0
 11 14  1  0  0  0  0
 12 11  1  0  0  0  0
 12 16  1  0  0  0  0
 15 12  1  0  0  0  0
 17  1  1  0  0  0  0
 18  2  1  0  0  0  0
 19  7  1  0  0  0  0
 20 10  1  0  0  0  0
M  END
$$$$
