Compound 012, distorted structure 08
 OpenBabel11072411383D

  9  9  0  0  0  0  0  0  0  0999 V2000
    0.0171   -1.1467   -0.0203 C   0  0  0  0  0  0  0  0  0  0  0  0
   -1.0002   -0.3907    0.0726 N   0  0  0  0  0  0  0  0  0  0  0  0
   -0.7284    0.9473   -0.0335 C   0  0  0  0  0  0  0  0  0  0  0  0
    0.7513    0.9378   -0.0756 C   0  0  0  0  0  0  0  0  0  0  0  0
    1.1263   -0.4116   -0.0707 N   0  0  0  0  0  0  0  0  0  0  0  0
    1.3459    1.8154   -0.0427 H   0  0  0  0  0  0  0  0  0  0  0  0
   -1.2960    1.7164    0.0730 H   0  0  0  0  0  0  0  0  0  0  0  0
   -2.0570   -0.5902   -0.0023 H   0  0  0  0  0  0  0  0  0  0  0  0
    0.0590   -2.1166   -0.0830 H   0  0  0  0  0  0  0  0  0  0  0  0
  1  2  1  0  0  0  0
  3  2  1  0  0  0  0
  3  7  1  0  0  0  0
  4  5  1  0  0  0  0
  4  6  1  0  0  0  0
  4  3  2  0  0  0  0
  5  1  2  0  0  0  0
  8  2  1  0  0  0  0
  9  1  1  0  0  0  0
M  END
$$$$
