Compound 012, distorted structure 09
 OpenBabel11072411383D

  9  9  0  0  0  0  0  0  0  0999 V2000
   -0.0163   -1.0762    0.0045 C   0  0  0  0  0  0  0  0  0  0  0  0
   -1.0915   -0.3600   -0.0560 N   0  0  0  0  0  0  0  0  0  0  0  0
   -0.7260    0.9245   -0.0034 C   0  0  0  0  0  0  0  0  0  0  0  0
    0.7260    1.0096   -0.0854 C   0  0  0  0  0  0  0  0  0  0  0  0
    1.2281   -0.4245    0.0171 N   0  0  0  0  0  0  0  0  0  0  0  0
    1.3592    1.7593   -0.0846 H   0  0  0  0  0  0  0  0  0  0  0  0
   -1.3031    1.8250   -0.0322 H   0  0  0  0  0  0  0  0  0  0  0  0
   -1.9497   -0.6300    0.0593 H   0  0  0  0  0  0  0  0  0  0  0  0
   -0.0100   -2.2392   -0.0446 H   0  0  0  0  0  0  0  0  0  0  0  0
  1  5  2  0  0  0  0
  2  3  1  0  0  0  0
  2  1  1  0  0  0  0
  2  8  1  0  0  0  0
  4  6  1  0  0  0  0
  4  3  2  0  0  0  0
  4  5  1  0  0  0  0
  7  3  1  0  0  0  0
  9  1  1  0  0  0  0
M  END
$$$$
