Compound 012 optimized with r2SCAN-3c
 OpenBabel11072411383D

  9  9  0  0  0  0  0  0  0  0999 V2000
    0.0576   -1.1168   -0.0000 C   0  0  0  0  0  0  0  0  0  0  0  0
   -1.0690   -0.3436   -0.0001 N   0  0  0  0  0  0  0  0  0  0  0  0
   -0.6610    0.9730   -0.0001 C   0  0  0  0  0  0  0  0  0  0  0  0
    0.7081    0.9230   -0.0001 C   0  0  0  0  0  0  0  0  0  0  0  0
    1.1475   -0.3820    0.0001 N   0  0  0  0  0  0  0  0  0  0  0  0
    1.4010    1.7531   -0.0001 H   0  0  0  0  0  0  0  0  0  0  0  0
   -1.3629    1.7934    0.0000 H   0  0  0  0  0  0  0  0  0  0  0  0
   -2.0212   -0.6707   -0.0001 H   0  0  0  0  0  0  0  0  0  0  0  0
    0.0183   -2.1988   -0.0001 H   0  0  0  0  0  0  0  0  0  0  0  0
  1  5  2  0  0  0  0
  2  3  1  0  0  0  0
  2  1  1  0  0  0  0
  3  4  2  0  0  0  0
  3  7  1  0  0  0  0
  4  6  1  0  0  0  0
  4  5  1  0  0  0  0
  8  2  1  0  0  0  0
  9  1  1  0  0  0  0
M  END
$$$$
