Compound 012, distorted structure 02
 OpenBabel11072411373D

  9  9  0  0  0  0  0  0  0  0999 V2000
    0.0443   -1.1096   -0.0010 C   0  0  0  0  0  0  0  0  0  0  0  0
   -1.0797   -0.3214   -0.0073 N   0  0  0  0  0  0  0  0  0  0  0  0
   -0.6416    0.9587    0.0214 C   0  0  0  0  0  0  0  0  0  0  0  0
    0.6818    0.9120   -0.0144 C   0  0  0  0  0  0  0  0  0  0  0  0
    1.1766   -0.3910    0.0180 N   0  0  0  0  0  0  0  0  0  0  0  0
    1.4117    1.7721    0.0033 H   0  0  0  0  0  0  0  0  0  0  0  0
   -1.3609    1.7730   -0.0022 H   0  0  0  0  0  0  0  0  0  0  0  0
   -2.0127   -0.6828    0.0259 H   0  0  0  0  0  0  0  0  0  0  0  0
   -0.0008   -2.1783    0.0098 H   0  0  0  0  0  0  0  0  0  0  0  0
  1  9  1  0  0  0  0
  1  5  2  0  0  0  0
  2  1  1  0  0  0  0
  2  3  1  0  0  0  0
  2  8  1  0  0  0  0
  4  6  1  0  0  0  0
  4  5  1  0  0  0  0
  4  3  2  0  0  0  0
  7  3  1  0  0  0  0
M  END
$$$$
