Compound 013, distorted structure 04
 OpenBabel11072411393D

 10 10  0  0  0  0  0  0  0  0999 V2000
   -1.0797    0.0117   -0.0146 N   0  0  0  0  0  0  0  0  0  0  0  0
   -2.1298   -0.0065   -0.0438 H   0  0  0  0  0  0  0  0  0  0  0  0
   -0.2774   -1.1354    0.0371 C   0  0  0  0  0  0  0  0  0  0  0  0
    0.9732   -0.6655   -0.0605 C   0  0  0  0  0  0  0  0  0  0  0  0
    1.0004    0.7579   -0.0287 C   0  0  0  0  0  0  0  0  0  0  0  0
   -0.3672    1.1728    0.0177 C   0  0  0  0  0  0  0  0  0  0  0  0
   -0.7525    2.0620   -0.0321 H   0  0  0  0  0  0  0  0  0  0  0  0
    1.8533    1.3163    0.0495 H   0  0  0  0  0  0  0  0  0  0  0  0
    1.7985   -1.3582    0.0096 H   0  0  0  0  0  0  0  0  0  0  0  0
   -0.8173   -2.1527   -0.0136 H   0  0  0  0  0  0  0  0  0  0  0  0
  1  6  1  0  0  0  0
  1  3  1  0  0  0  0
  2  1  1  0  0  0  0
  4  5  1  0  0  0  0
  4  9  1  0  0  0  0
  4  3  2  0  0  0  0
  5  6  2  0  0  0  0
  5  8  1  0  0  0  0
  7  6  1  0  0  0  0
 10  3  1  0  0  0  0
M  END
$$$$
