Compound 014, distorted structure 07
 OpenBabel11072411383D

 10 10  0  0  0  0  0  0  0  0999 V2000
    1.1179   -0.7646   -0.0614 N   0  0  0  0  0  0  0  0  0  0  0  0
    1.2382    0.6693   -0.0334 C   0  0  0  0  0  0  0  0  0  0  0  0
    0.0598    1.3338    0.0718 C   0  0  0  0  0  0  0  0  0  0  0  0
   -1.1967    0.7178    0.0871 C   0  0  0  0  0  0  0  0  0  0  0  0
   -1.2054   -0.5877   -0.0210 N   0  0  0  0  0  0  0  0  0  0  0  0
   -0.0060   -1.2507    0.0159 C   0  0  0  0  0  0  0  0  0  0  0  0
    2.2110    1.1488   -0.0209 H   0  0  0  0  0  0  0  0  0  0  0  0
    0.0686    2.5110   -0.0139 H   0  0  0  0  0  0  0  0  0  0  0  0
   -2.2557    1.1081    0.0713 H   0  0  0  0  0  0  0  0  0  0  0  0
    0.0739   -2.4281    0.0907 H   0  0  0  0  0  0  0  0  0  0  0  0
  1  2  1  0  0  0  0
  1  6  2  0  0  0  0
  2  7  1  0  0  0  0
  2  3  2  0  0  0  0
  3  4  1  0  0  0  0
  5  6  1  0  0  0  0
  5  4  2  0  0  0  0
  6 10  1  0  0  0  0
  8  3  1  0  0  0  0
  9  4  1  0  0  0  0
M  END
$$$$
