Compound 015, distorted structure 06
 OpenBabel11072411383D

 11 11  0  0  0  0  0  0  0  0999 V2000
   -0.7017   -1.0811   -0.0592 C   0  0  0  0  0  0  0  0  0  0  0  0
    0.6970   -1.1520    0.0255 C   0  0  0  0  0  0  0  0  0  0  0  0
    1.3527    0.0009   -0.0341 C   0  0  0  0  0  0  0  0  0  0  0  0
    0.6812    1.1478    0.0600 C   0  0  0  0  0  0  0  0  0  0  0  0
   -0.7260    1.2003   -0.0322 C   0  0  0  0  0  0  0  0  0  0  0  0
   -1.3747   -0.0461    0.0548 N   0  0  0  0  0  0  0  0  0  0  0  0
    1.1470    2.1567    0.0367 H   0  0  0  0  0  0  0  0  0  0  0  0
   -1.2296    2.1080    0.0325 H   0  0  0  0  0  0  0  0  0  0  0  0
    1.2274   -2.1373   -0.0017 H   0  0  0  0  0  0  0  0  0  0  0  0
    2.5245    0.0580    0.0378 H   0  0  0  0  0  0  0  0  0  0  0  0
   -1.2419   -2.0628    0.0191 H   0  0  0  0  0  0  0  0  0  0  0  0
  1 11  1  0  0  0  0
  1  2  2  0  0  0  0
  1  6  1  0  0  0  0
  3  2  1  0  0  0  0
  3 10  1  0  0  0  0
  3  4  2  0  0  0  0
  5  8  1  0  0  0  0
  5  6  2  0  0  0  0
  5  4  1  0  0  0  0
  7  4  1  0  0  0  0
  9  2  1  0  0  0  0
M  END
$$$$
