Compound 016, distorted structure 09
 OpenBabel11072411373D

 12 11  0  0  0  0  0  0  0  0999 V2000
    1.1183   -1.2285   -0.1205 C   0  0  0  0  0  0  0  0  0  0  0  0
    0.3778    0.0242    0.3127 C   0  0  0  0  0  0  0  0  0  0  0  0
    1.0504   -1.2666   -1.2981 H   0  0  0  0  0  0  0  0  0  0  0  0
    0.7041   -2.2499    0.2548 H   0  0  0  0  0  0  0  0  0  0  0  0
    2.2459   -1.3468    0.1403 H   0  0  0  0  0  0  0  0  0  0  0  0
    1.1085    1.1983   -0.2222 C   0  0  0  0  0  0  0  0  0  0  0  0
    0.6581    2.1845    0.2749 H   0  0  0  0  0  0  0  0  0  0  0  0
    0.9403    1.3630   -1.1732 H   0  0  0  0  0  0  0  0  0  0  0  0
    2.1172    1.3579    0.1537 H   0  0  0  0  0  0  0  0  0  0  0  0
    0.5592    0.0221    1.5228 H   0  0  0  0  0  0  0  0  0  0  0  0
   -0.9265    0.0447    0.1743 C   0  0  0  0  0  0  0  0  0  0  0  0
   -2.1426    0.0227   -0.0901 N   0  0  0  0  0  0  0  0  0  0  0  0
  1  5  1  0  0  0  0
  1  4  1  0  0  0  0
  1  2  1  0  0  0  0
  2 10  1  0  0  0  0
  3  1  1  0  0  0  0
  6  9  1  0  0  0  0
  6  7  1  0  0  0  0
  6  2  1  0  0  0  0
  8  6  1  0  0  0  0
 11  2  1  0  0  0  0
 12 11  3  0  0  0  0
M  END
$$$$
