Compound 017, distorted structure 09
 OpenBabel11072411383D

 13 12  0  0  0  0  0  0  0  0999 V2000
   -2.6533   -0.6487    0.0630 C   0  0  0  0  0  0  0  0  0  0  0  0
   -1.2383   -0.4086    0.2051 C   0  0  0  0  0  0  0  0  0  0  0  0
   -3.1645    0.1084   -0.5295 H   0  0  0  0  0  0  0  0  0  0  0  0
   -3.2132   -0.6075    1.0886 H   0  0  0  0  0  0  0  0  0  0  0  0
   -2.8812   -1.5009   -0.4658 H   0  0  0  0  0  0  0  0  0  0  0  0
   -0.6370    0.6442   -0.3038 C   0  0  0  0  0  0  0  0  0  0  0  0
    0.8980    1.0332   -0.3650 C   0  0  0  0  0  0  0  0  0  0  0  0
    1.5999    0.0764    0.3419 C   0  0  0  0  0  0  0  0  0  0  0  0
    0.9514    2.0757    0.1724 H   0  0  0  0  0  0  0  0  0  0  0  0
    1.1747    1.0673   -1.3183 H   0  0  0  0  0  0  0  0  0  0  0  0
   -0.6730   -1.0400    0.6119 H   0  0  0  0  0  0  0  0  0  0  0  0
   -1.2266    1.5329   -0.9865 H   0  0  0  0  0  0  0  0  0  0  0  0
    2.2254   -0.6332    1.0772 N   0  0  0  0  0  0  0  0  0  0  0  0
  1  2  1  0  0  0  0
  1  4  1  0  0  0  0
  2 11  1  0  0  0  0
  3  1  1  0  0  0  0
  5  1  1  0  0  0  0
  6  2  2  0  0  0  0
  7  6  1  0  0  0  0
  7  9  1  0  0  0  0
  7  8  1  0  0  0  0
  8 13  3  0  0  0  0
 10  7  1  0  0  0  0
 12  6  1  0  0  0  0
M  END
$$$$
