Compound 018, distorted structure 02
 OpenBabel11072411403D

 15 14  0  0  1  0  0  0  0  0999 V2000
   -1.9506   -0.0365   -0.0902 N   0  0  0  0  0  0  0  0  0  0  0  0
   -0.6967   -0.6844    0.3309 C   0  0  0  0  0  0  0  0  0  0  0  0
    0.5057   -0.0116   -0.3578 C   0  0  2  0  0  0  0  0  0  0  0  0
   -0.6307   -1.7783    0.0713 H   0  0  0  0  0  0  0  0  0  0  0  0
   -0.6032   -0.6058    1.4127 H   0  0  0  0  0  0  0  0  0  0  0  0
    1.7819   -0.6715    0.0219 C   0  0  0  0  0  0  0  0  0  0  0  0
    1.7747   -1.7294   -0.3175 H   0  0  0  0  0  0  0  0  0  0  0  0
    1.9384   -0.6882    1.1163 H   0  0  0  0  0  0  0  0  0  0  0  0
    2.6422   -0.1607   -0.4222 H   0  0  0  0  0  0  0  0  0  0  0  0
    0.5231    1.3837    0.1444 N   0  0  0  0  0  0  0  0  0  0  0  0
    0.3222   -0.0619   -1.4168 H   0  0  0  0  0  0  0  0  0  0  0  0
   -2.7420   -0.3779    0.4687 H   0  0  0  0  0  0  0  0  0  0  0  0
   -2.1977   -0.3029   -1.0439 H   0  0  0  0  0  0  0  0  0  0  0  0
   -0.3832    1.8242   -0.0127 H   0  0  0  0  0  0  0  0  0  0  0  0
    1.1460    1.9299   -0.4036 H   0  0  0  0  0  0  0  0  0  0  0  0
  1  2  1  0  0  0  0
  1 12  1  0  0  0  0
  2  5  1  0  0  0  0
  3 11  1  6  0  0  0
  3  6  1  0  0  0  0
  3 10  1  0  0  0  0
  3  2  1  0  0  0  0
  4  2  1  0  0  0  0
  6  8  1  0  0  0  0
  7  6  1  0  0  0  0
  9  6  1  0  0  0  0
 13  1  1  0  0  0  0
 14 10  1  0  0  0  0
 15 10  1  0  0  0  0
M  END
$$$$
