Compound 019 optimized with r2SCAN-3c
 OpenBabel11072411393D

 16 16  0  0  0  0  0  0  0  0999 V2000
    0.7156   -1.2066    0.2597 C   0  0  0  0  0  0  0  0  0  0  0  0
   -0.7154   -1.2067   -0.2597 C   0  0  0  0  0  0  0  0  0  0  0  0
   -1.3967   -0.0002    0.2258 N   0  0  0  0  0  0  0  0  0  0  0  0
   -0.7156    1.2065   -0.2597 C   0  0  0  0  0  0  0  0  0  0  0  0
   -2.3584   -0.0002   -0.0958 H   0  0  0  0  0  0  0  0  0  0  0  0
    0.7155    1.2067    0.2596 C   0  0  0  0  0  0  0  0  0  0  0  0
    1.3967    0.0001   -0.2258 N   0  0  0  0  0  0  0  0  0  0  0  0
    2.3584    0.0001    0.0958 H   0  0  0  0  0  0  0  0  0  0  0  0
    1.2456   -2.0903   -0.1170 H   0  0  0  0  0  0  0  0  0  0  0  0
    0.6858   -1.2638    1.3654 H   0  0  0  0  0  0  0  0  0  0  0  0
   -1.2452   -2.0905    0.1170 H   0  0  0  0  0  0  0  0  0  0  0  0
   -0.6856   -1.2639   -1.3654 H   0  0  0  0  0  0  0  0  0  0  0  0
    0.6856    1.2639    1.3653 H   0  0  0  0  0  0  0  0  0  0  0  0
    1.2453    2.0904   -0.1171 H   0  0  0  0  0  0  0  0  0  0  0  0
   -1.2456    2.0902    0.1171 H   0  0  0  0  0  0  0  0  0  0  0  0
   -0.6858    1.2638   -1.3653 H   0  0  0  0  0  0  0  0  0  0  0  0
  1 10  1  0  0  0  0
  2 11  1  0  0  0  0
  2  3  1  0  0  0  0
  2  1  1  0  0  0  0
  4 15  1  0  0  0  0
  4  3  1  0  0  0  0
  4  6  1  0  0  0  0
  5  3  1  0  0  0  0
  6 13  1  0  0  0  0
  7  8  1  0  0  0  0
  7  6  1  0  0  0  0
  7  1  1  0  0  0  0
  9  1  1  0  0  0  0
 12  2  1  0  0  0  0
 14  6  1  0  0  0  0
 16  4  1  0  0  0  0
M  END
$$$$
