Compound 021, distorted structure 05
 OpenBabel12112416303D

 20 21  0  0  1  0  0  0  0  0999 V2000
   -1.2618   -0.0306   -0.0428 N   0  0  1  0  0  0  0  0  0  0  0  0
   -0.7804    1.1599    0.6726 C   0  0  0  0  0  0  0  0  0  0  0  0
    0.7471    1.1701    0.7157 C   0  0  0  0  0  0  0  0  0  0  0  0
   -1.2015    1.1848    1.7701 H   0  0  0  0  0  0  0  0  0  0  0  0
   -1.1853    2.0967    0.1981 H   0  0  0  0  0  0  0  0  0  0  0  0
    1.2813    0.0396   -0.0034 N   0  0  2  0  0  0  0  0  0  0  0  0
    1.1647    1.2067    1.6860 H   0  0  0  0  0  0  0  0  0  0  0  0
    1.1801    2.0973    0.1814 H   0  0  0  0  0  0  0  0  0  0  0  0
    0.7813   -0.0207   -1.4021 C   0  0  0  0  0  0  0  0  0  0  0  0
   -0.7464    0.0375   -1.3970 C   0  0  0  0  0  0  0  0  0  0  0  0
    1.2195   -0.8316   -1.9433 H   0  0  0  0  0  0  0  0  0  0  0  0
    1.2083    0.8895   -1.8411 H   0  0  0  0  0  0  0  0  0  0  0  0
   -1.1517   -0.9039   -1.8936 H   0  0  0  0  0  0  0  0  0  0  0  0
   -1.1593    0.8685   -1.9222 H   0  0  0  0  0  0  0  0  0  0  0  0
   -0.8103   -1.1616    0.7003 C   0  0  0  0  0  0  0  0  0  0  0  0
    0.7672   -1.2406    0.6640 C   0  0  0  0  0  0  0  0  0  0  0  0
   -1.1555   -2.0394    0.1573 H   0  0  0  0  0  0  0  0  0  0  0  0
   -1.1428   -1.1901    1.6968 H   0  0  0  0  0  0  0  0  0  0  0  0
    1.2072   -2.0379    0.1641 H   0  0  0  0  0  0  0  0  0  0  0  0
    1.2213   -1.1924    1.7028 H   0  0  0  0  0  0  0  0  0  0  0  0
  1 10  1  6  0  0  0
  1  2  1  0  0  0  0
  1 15  1  0  0  0  0
  2  3  1  0  0  0  0
  2  4  1  0  0  0  0
  3  7  1  0  0  0  0
  5  2  1  0  0  0  0
  6  9  1  6  0  0  0
  6 16  1  0  0  0  0
  6  3  1  0  0  0  0
  8  3  1  0  0  0  0
  9 10  1  0  0  0  0
 11  9  1  0  0  0  0
 12  9  1  0  0  0  0
 13 10  1  0  0  0  0
 14 10  1  0  0  0  0
 15 18  1  0  0  0  0
 16 15  1  0  0  0  0
 16 20  1  0  0  0  0
 17 15  1  0  0  0  0
 19 16  1  0  0  0  0
M  END
$$$$
