Compound 021, distorted structure 08
 OpenBabel11072411383D

 20 21  0  0  1  0  0  0  0  0999 V2000
   -1.2693    0.0208   -0.0035 N   0  0  1  0  0  0  0  0  0  0  0  0
   -0.8499    1.2202    0.7008 C   0  0  0  0  0  0  0  0  0  0  0  0
    0.7148    1.1505    0.6433 C   0  0  0  0  0  0  0  0  0  0  0  0
   -1.2127    1.2455    1.7573 H   0  0  0  0  0  0  0  0  0  0  0  0
   -1.1918    2.1042    0.1264 H   0  0  0  0  0  0  0  0  0  0  0  0
    1.3059    0.0539    0.0744 N   0  0  2  0  0  0  0  0  0  0  0  0
    1.1790    1.1442    1.7027 H   0  0  0  0  0  0  0  0  0  0  0  0
    1.2567    2.1260    0.2213 H   0  0  0  0  0  0  0  0  0  0  0  0
    0.8663   -0.0360   -1.4499 C   0  0  0  0  0  0  0  0  0  0  0  0
   -0.7762    0.0851   -1.3876 C   0  0  0  0  0  0  0  0  0  0  0  0
    1.2172   -0.9454   -1.8605 H   0  0  0  0  0  0  0  0  0  0  0  0
    1.1701    0.9244   -1.8020 H   0  0  0  0  0  0  0  0  0  0  0  0
   -1.2105   -0.8804   -1.8404 H   0  0  0  0  0  0  0  0  0  0  0  0
   -1.0953    0.9906   -1.8154 H   0  0  0  0  0  0  0  0  0  0  0  0
   -0.8398   -1.1389    0.7468 C   0  0  0  0  0  0  0  0  0  0  0  0
    0.8241   -1.2498    0.6919 C   0  0  0  0  0  0  0  0  0  0  0  0
   -1.1330   -2.0760    0.2306 H   0  0  0  0  0  0  0  0  0  0  0  0
   -1.1865   -1.2255    1.6985 H   0  0  0  0  0  0  0  0  0  0  0  0
    1.1206   -2.0529    0.0799 H   0  0  0  0  0  0  0  0  0  0  0  0
    1.2121   -1.2438    1.6640 H   0  0  0  0  0  0  0  0  0  0  0  0
  1 10  1  6  0  0  0
  1  2  1  0  0  0  0
  1 15  1  0  0  0  0
  2  4  1  0  0  0  0
  3  2  1  0  0  0  0
  3  7  1  0  0  0  0
  5  2  1  0  0  0  0
  6  9  1  6  0  0  0
  6  3  1  0  0  0  0
  6 16  1  0  0  0  0
  8  3  1  0  0  0  0
  9 10  1  0  0  0  0
 11  9  1  0  0  0  0
 12  9  1  0  0  0  0
 13 10  1  0  0  0  0
 14 10  1  0  0  0  0
 15 18  1  0  0  0  0
 16 15  1  0  0  0  0
 16 20  1  0  0  0  0
 17 15  1  0  0  0  0
 19 16  1  0  0  0  0
M  END
$$$$
