Compound 022, distorted structure 08
 OpenBabel12112416303D

  8  7  0  0  0  0  0  0  0  0999 V2000
    0.5026    0.4054    0.0642 C   0  0  0  0  0  3  0  0  0  0  0  0
    1.6538   -0.1952    0.0748 O   0  0  0  0  0  1  0  0  0  0  0  0
   -0.6110   -0.3771   -0.0173 C   0  0  0  0  0  3  0  0  0  0  0  0
   -1.8370    0.2288    0.0974 C   0  0  0  0  0  3  0  0  0  0  0  0
   -2.8446   -0.3545   -0.0797 H   0  0  0  0  0  0  0  0  0  0  0  0
   -1.9314    1.3022   -0.0294 H   0  0  0  0  0  0  0  0  0  0  0  0
   -0.5271   -1.6329   -0.1128 H   0  0  0  0  0  0  0  0  0  0  0  0
    0.3952    1.3727   -0.0735 H   0  0  0  0  0  0  0  0  0  0  0  0
  1  2  1  0  0  0  0
  3  1  1  0  0  0  0
  3  4  1  0  0  0  0
  5  4  1  0  0  0  0
  6  4  1  0  0  0  0
  7  3  1  0  0  0  0
  8  1  1  0  0  0  0
M  END
$$$$
