Compound 022, distorted structure 03
 OpenBabel12102416393D

  8  7  0  0  0  0  0  0  0  0999 V2000
    0.5846    0.3954    0.0023 C   0  0  0  0  0  0  0  0  0  0  0  0
    1.7332   -0.0656    0.0188 O   0  0  0  0  0  0  0  0  0  0  0  0
   -0.6628   -0.4092    0.0314 C   0  0  0  0  0  0  0  0  0  0  0  0
   -1.8643    0.1808   -0.0258 C   0  0  0  0  0  0  0  0  0  0  0  0
   -2.7356   -0.4644    0.0243 H   0  0  0  0  0  0  0  0  0  0  0  0
   -1.9589    1.1886    0.0012 H   0  0  0  0  0  0  0  0  0  0  0  0
   -0.4892   -1.5034    0.0200 H   0  0  0  0  0  0  0  0  0  0  0  0
    0.4191    1.4433   -0.0020 H   0  0  0  0  0  0  0  0  0  0  0  0
  1  2  2  0  0  0  0
  1  3  1  0  0  0  0
  4  6  1  0  0  0  0
  4  5  1  0  0  0  0
  4  3  2  0  0  0  0
  7  3  1  0  0  0  0
  8  1  1  0  0  0  0
M  END
$$$$
