Compound 023, distorted structure 05
 OpenBabel11072411373D

  8  8  0  0  0  0  0  0  0  0999 V2000
   -0.1990   -1.2688   -0.0718 C   0  0  0  0  0  0  0  0  0  0  0  0
   -1.0521   -0.2042    0.0274 C   0  0  0  0  0  0  0  0  0  0  0  0
   -0.5237    0.9617   -0.0179 O   0  0  0  0  0  0  0  0  0  0  0  0
    0.7978    0.7723    0.0601 N   0  0  0  0  0  0  0  0  0  0  0  0
    1.0738   -0.5706    0.0740 C   0  0  0  0  0  0  0  0  0  0  0  0
   -0.2505   -2.3613   -0.0592 H   0  0  0  0  0  0  0  0  0  0  0  0
   -2.1605   -0.1550    0.0164 H   0  0  0  0  0  0  0  0  0  0  0  0
    2.0756   -0.8484    0.0516 H   0  0  0  0  0  0  0  0  0  0  0  0
  1  6  1  0  0  0  0
  1  2  2  0  0  0  0
  1  5  1  0  0  0  0
  3  2  1  0  0  0  0
  3  4  1  0  0  0  0
  4  5  2  0  0  0  0
  7  2  1  0  0  0  0
  8  5  1  0  0  0  0
M  END
$$$$
