Compound 024, distorted structure 06
 OpenBabel11072411353D

  9  8  0  0  0  0  0  0  0  0999 V2000
    1.3135   -0.2333   -0.0041 C   0  0  0  0  0  0  0  0  0  0  0  0
    1.2203   -1.0724   -0.8541 H   0  0  0  0  0  0  0  0  0  0  0  0
   -0.0551    0.6028   -0.0413 C   0  0  0  0  0  0  0  0  0  0  0  0
    0.0449    1.1235   -0.9247 H   0  0  0  0  0  0  0  0  0  0  0  0
   -1.1947   -0.2731    0.0592 O   0  0  0  0  0  0  0  0  0  0  0  0
   -1.9119    0.2265    0.0158 H   0  0  0  0  0  0  0  0  0  0  0  0
    0.0647    1.2576    0.8542 H   0  0  0  0  0  0  0  0  0  0  0  0
    1.3250   -0.7868    0.9347 H   0  0  0  0  0  0  0  0  0  0  0  0
    2.1707    0.2868   -0.1017 H   0  0  0  0  0  0  0  0  0  0  0  0
  1  8  1  0  0  0  0
  2  1  1  0  0  0  0
  3  1  1  0  0  0  0
  3  5  1  0  0  0  0
  3  7  1  0  0  0  0
  4  3  1  0  0  0  0
  6  5  1  0  0  0  0
  9  1  1  0  0  0  0
M  END
$$$$
