Compound 024, distorted structure 09
 OpenBabel12102416393D

  9  8  0  0  0  0  0  0  0  0999 V2000
    1.4108   -0.4178    0.1360 C   0  0  0  0  0  0  0  0  0  0  0  0
    1.3028   -0.9298   -0.9633 H   0  0  0  0  0  0  0  0  0  0  0  0
    0.0696    0.5963   -0.1092 C   0  0  0  0  0  0  0  0  0  0  0  0
   -0.1513    1.1141   -1.1518 H   0  0  0  0  0  0  0  0  0  0  0  0
   -1.0474   -0.2572   -0.1004 O   0  0  0  0  0  0  0  0  0  0  0  0
   -2.0278    0.2291   -0.1581 H   0  0  0  0  0  0  0  0  0  0  0  0
   -0.0826    1.4386    0.6120 H   0  0  0  0  0  0  0  0  0  0  0  0
    1.3929   -0.7729    1.0561 H   0  0  0  0  0  0  0  0  0  0  0  0
    2.2705    0.3443   -0.0438 H   0  0  0  0  0  0  0  0  0  0  0  0
  1  8  1  0  0  0  0
  2  1  1  0  0  0  0
  3  5  1  0  0  0  0
  3  1  1  0  0  0  0
  3  7  1  0  0  0  0
  4  3  1  0  0  0  0
  6  5  1  0  0  0  0
  9  1  1  0  0  0  0
M  END
$$$$
