Compound 025, distorted structure 04
 OpenBabel12112416303D

  9  9  0  0  0  0  0  0  0  0999 V2000
   -1.0272    0.7468   -0.0288 C   0  0  0  0  0  0  0  0  0  0  0  0
    0.3593    1.0621   -0.0376 C   0  0  0  0  0  0  0  0  0  0  0  0
    1.1088   -0.0096   -0.0144 O   0  0  0  0  0  0  0  0  0  0  0  0
    0.3240   -1.0472    0.0310 C   0  0  0  0  0  0  0  0  0  0  0  0
   -0.9850   -0.7257    0.0523 C   0  0  0  0  0  0  0  0  0  0  0  0
   -1.8027    1.4244   -0.0496 H   0  0  0  0  0  0  0  0  0  0  0  0
    0.8691    2.0097    0.0196 H   0  0  0  0  0  0  0  0  0  0  0  0
    0.8427   -2.0082   -0.0278 H   0  0  0  0  0  0  0  0  0  0  0  0
   -1.9038   -1.3323    0.0425 H   0  0  0  0  0  0  0  0  0  0  0  0
  1  5  1  0  0  0  0
  2  1  2  0  0  0  0
  2  3  1  0  0  0  0
  2  7  1  0  0  0  0
  3  4  1  0  0  0  0
  4  5  2  0  0  0  0
  6  1  1  0  0  0  0
  8  4  1  0  0  0  0
  9  5  1  0  0  0  0
M  END
$$$$
