Compound 025, distorted structure 02
 OpenBabel12112416303D

  9  9  0  0  0  0  0  0  0  0999 V2000
   -1.0263    0.6846    0.0349 C   0  0  0  0  0  0  0  0  0  0  0  0
    0.2810    1.1100    0.0416 C   0  0  0  0  0  0  0  0  0  0  0  0
    1.1316    0.0197    0.0315 O   0  0  0  0  0  0  0  0  0  0  0  0
    0.3369   -1.0954   -0.0087 C   0  0  0  0  0  0  0  0  0  0  0  0
   -1.0106   -0.7018    0.0179 C   0  0  0  0  0  0  0  0  0  0  0  0
   -1.8050    1.4059    0.0041 H   0  0  0  0  0  0  0  0  0  0  0  0
    0.8189    2.0244    0.0339 H   0  0  0  0  0  0  0  0  0  0  0  0
    0.8154   -2.0685   -0.0189 H   0  0  0  0  0  0  0  0  0  0  0  0
   -1.8350   -1.3545   -0.0196 H   0  0  0  0  0  0  0  0  0  0  0  0
  1  2  2  0  0  0  0
  3  2  1  0  0  0  0
  4  5  2  0  0  0  0
  4  3  1  0  0  0  0
  5  1  1  0  0  0  0
  6  1  1  0  0  0  0
  7  2  1  0  0  0  0
  8  4  1  0  0  0  0
  9  5  1  0  0  0  0
M  END
$$$$
