Compound 026, distorted structure 07
 OpenBabel12102416393D

  9  8  0  0  0  0  0  0  0  0999 V2000
   -1.2700   -1.2695   -0.0743 C   0  0  0  0  0  0  0  0  0  0  0  0
   -0.4620    0.1504    0.0013 C   0  0  0  0  0  0  0  0  0  0  0  0
   -0.8690   -1.7233    0.8152 H   0  0  0  0  0  0  0  0  0  0  0  0
   -0.9584   -1.7821   -0.9465 H   0  0  0  0  0  0  0  0  0  0  0  0
   -2.3309   -0.9690    0.0819 H   0  0  0  0  0  0  0  0  0  0  0  0
    1.0586   -0.0058   -0.0257 C   0  0  0  0  0  0  0  0  0  0  0  0
    2.1488   -0.0195   -0.0187 C   0  0  0  0  0  0  0  0  0  0  0  0
    3.2780   -0.1861    0.0560 H   0  0  0  0  0  0  0  0  0  0  0  0
   -0.9964    1.1642   -0.0540 O   0  0  0  0  0  0  0  0  0  0  0  0
  1  2  1  0  0  0  0
  1  5  1  0  0  0  0
  1  3  1  0  0  0  0
  4  1  1  0  0  0  0
  6  7  3  0  0  0  0
  6  2  1  0  0  0  0
  7  8  1  0  0  0  0
  9  2  2  0  0  0  0
M  END
$$$$
