Compound 027 optimized with r2SCAN-3c
 OpenBabel11072411373D

  9  8  0  0  0  0  0  0  0  0999 V2000
   -2.2510   -0.1438    0.0001 C   0  0  0  0  0  0  0  0  0  0  0  0
   -0.9470   -0.3710   -0.0007 C   0  0  0  0  0  0  0  0  0  0  0  0
   -0.0692    0.7075   -0.0009 O   0  0  0  0  0  0  0  0  0  0  0  0
    1.2657    0.4418    0.0003 C   0  0  0  0  0  0  0  0  0  0  0  0
    1.7716   -0.6460    0.0018 O   0  0  0  0  0  0  0  0  0  0  0  0
    1.8044    1.4015   -0.0005 H   0  0  0  0  0  0  0  0  0  0  0  0
   -0.4722   -1.3462   -0.0013 H   0  0  0  0  0  0  0  0  0  0  0  0
   -2.9357   -0.9826    0.0002 H   0  0  0  0  0  0  0  0  0  0  0  0
   -2.6535    0.8632    0.0009 H   0  0  0  0  0  0  0  0  0  0  0  0
  1  8  1  0  0  0  0
  1  9  1  0  0  0  0
  2  1  2  0  0  0  0
  3  2  1  0  0  0  0
  3  4  1  0  0  0  0
  4  5  2  0  0  0  0
  6  4  1  0  0  0  0
  7  2  1  0  0  0  0
M  END
$$$$
