Compound 027, distorted structure 06
 OpenBabel12112416303D

  9  8  0  0  0  0  0  0  0  0999 V2000
   -2.3157   -0.0969    0.0015 C   0  0  0  0  0  0  0  0  0  0  0  0
   -0.9956   -0.3454   -0.0692 C   0  0  0  0  0  0  0  0  0  0  0  0
   -0.0205    0.7764   -0.0010 O   0  0  0  0  0  0  0  0  0  0  0  0
    1.3395    0.4629    0.0869 C   0  0  0  0  0  0  0  0  0  0  0  0
    1.8429   -0.6000    0.0160 O   0  0  0  0  0  0  0  0  0  0  0  0
    1.7663    1.3427   -0.0266 H   0  0  0  0  0  0  0  0  0  0  0  0
   -0.5183   -1.2784   -0.0030 H   0  0  0  0  0  0  0  0  0  0  0  0
   -2.9828   -1.0671    0.0643 H   0  0  0  0  0  0  0  0  0  0  0  0
   -2.6934    0.8179    0.0361 H   0  0  0  0  0  0  0  0  0  0  0  0
  1  9  1  0  0  0  0
  1  8  1  0  0  0  0
  2  7  1  0  0  0  0
  2  3  1  0  0  0  0
  2  1  2  0  0  0  0
  3  4  1  0  0  0  0
  5  4  2  0  0  0  0
  6  4  1  0  0  0  0
M  END
$$$$
