Compound 027, distorted structure 08
 OpenBabel12102416393D

  9  8  0  0  0  0  0  0  0  0999 V2000
   -2.1528   -0.0954    0.0518 C   0  0  0  0  0  3  0  0  0  0  0  0
   -0.8153   -0.3008   -0.0711 C   0  0  0  0  0  3  0  0  0  0  0  0
    0.0197    0.8478    0.0263 O   0  0  0  0  0  0  0  0  0  0  0  0
    1.2210    0.3745    0.0458 C   0  0  0  0  0  0  0  0  0  0  0  0
    1.6693   -0.7383   -0.0265 O   0  0  0  0  0  0  0  0  0  0  0  0
    1.7377    1.3675    0.0821 H   0  0  0  0  0  0  0  0  0  0  0  0
   -0.5652   -1.2332   -0.1161 H   0  0  0  0  0  0  0  0  0  0  0  0
   -3.0804   -0.9496    0.1372 H   0  0  0  0  0  0  0  0  0  0  0  0
   -2.6440    0.8817   -0.0360 H   0  0  0  0  0  0  0  0  0  0  0  0
  1  8  1  0  0  0  0
  2  3  1  0  0  0  0
  2  1  1  0  0  0  0
  3  4  1  0  0  0  0
  4  6  1  0  0  0  0
  5  4  2  0  0  0  0
  7  2  1  0  0  0  0
  9  1  1  0  0  0  0
M  END
$$$$
