Compound 027, distorted structure 04
 OpenBabel12102416393D

  9  8  0  0  0  0  0  0  0  0999 V2000
   -2.2925   -0.1577   -0.0485 C   0  0  0  0  0  0  0  0  0  0  0  0
   -0.9192   -0.4126    0.0133 C   0  0  0  0  0  0  0  0  0  0  0  0
   -0.0265    0.7237   -0.0586 O   0  0  0  0  0  0  0  0  0  0  0  0
    1.2405    0.4741    0.0215 C   0  0  0  0  0  0  0  0  0  0  0  0
    1.8032   -0.6264   -0.0537 O   0  0  0  0  0  0  0  0  0  0  0  0
    1.8579    1.4289    0.0482 H   0  0  0  0  0  0  0  0  0  0  0  0
   -0.4838   -1.3930    0.0020 H   0  0  0  0  0  0  0  0  0  0  0  0
   -2.8964   -0.9691    0.0320 H   0  0  0  0  0  0  0  0  0  0  0  0
   -2.6482    0.9207   -0.0092 H   0  0  0  0  0  0  0  0  0  0  0  0
  1  9  1  0  0  0  0
  1  2  2  0  0  0  0
  1  8  1  0  0  0  0
  3  2  1  0  0  0  0
  3  4  1  0  0  0  0
  4  6  1  0  0  0  0
  5  4  2  0  0  0  0
  7  2  1  0  0  0  0
M  END
$$$$
