Compound 027, distorted structure 09
 OpenBabel12102416393D

  9  8  0  0  0  0  0  0  0  0999 V2000
   -2.1682   -0.1207    0.0373 C   0  0  0  0  0  0  0  0  0  0  0  0
   -1.0296   -0.3729    0.0235 C   0  0  0  0  0  0  0  0  0  0  0  0
   -0.0116    0.6580    0.0751 O   0  0  0  0  0  0  0  0  0  0  0  0
    1.3416    0.5222   -0.0651 C   0  0  0  0  0  0  0  0  0  0  0  0
    1.7848   -0.6057   -0.0490 O   0  0  0  0  0  0  0  0  0  0  0  0
    1.7247    1.4144    0.0498 H   0  0  0  0  0  0  0  0  0  0  0  0
   -0.4117   -1.4084    0.0113 H   0  0  0  0  0  0  0  0  0  0  0  0
   -2.8772   -1.0155   -0.0159 H   0  0  0  0  0  0  0  0  0  0  0  0
   -2.6442    0.9142    0.0166 H   0  0  0  0  0  0  0  0  0  0  0  0
  2  1  2  0  0  0  0
  2  3  1  0  0  0  0
  4  5  2  0  0  0  0
  4  6  1  0  0  0  0
  4  3  1  0  0  0  0
  7  2  1  0  0  0  0
  8  1  1  0  0  0  0
  9  1  1  0  0  0  0
M  END
$$$$
