Compound 028, distorted structure 01
 OpenBabel11072411363D

 10  9  0  0  0  0  0  0  0  0999 V2000
    1.2811    0.6957   -0.0191 C   0  0  0  0  0  0  0  0  0  0  0  0
   -0.0235   -0.1209    0.0025 C   0  0  0  0  0  0  0  0  0  0  0  0
   -0.0202   -1.3350   -0.0143 O   0  0  0  0  0  0  0  0  0  0  0  0
   -1.2767    0.6854    0.0116 C   0  0  0  0  0  0  0  0  0  0  0  0
    1.2259    1.5115   -0.7391 H   0  0  0  0  0  0  0  0  0  0  0  0
    2.1531    0.0511   -0.2046 H   0  0  0  0  0  0  0  0  0  0  0  0
    1.4327    1.1301    0.9911 H   0  0  0  0  0  0  0  0  0  0  0  0
   -1.4079    1.1486   -0.9830 H   0  0  0  0  0  0  0  0  0  0  0  0
   -1.2499    1.5401    0.7452 H   0  0  0  0  0  0  0  0  0  0  0  0
   -2.1308    0.0617    0.2353 H   0  0  0  0  0  0  0  0  0  0  0  0
  1  2  1  0  0  0  0
  1  7  1  0  0  0  0
  2  4  1  0  0  0  0
  3  2  2  0  0  0  0
  4 10  1  0  0  0  0
  4  9  1  0  0  0  0
  5  1  1  0  0  0  0
  6  1  1  0  0  0  0
  8  4  1  0  0  0  0
M  END
$$$$
