Compound 028, distorted structure 04
 OpenBabel12112416303D

 10  9  0  0  0  0  0  0  0  0999 V2000
    1.2722    0.6897    0.0053 C   0  0  0  0  0  0  0  0  0  0  0  0
   -0.0097   -0.0527    0.0304 C   0  0  0  0  0  3  0  0  0  0  0  0
    0.0078   -1.3677   -0.0014 O   0  0  0  0  0  1  0  0  0  0  0  0
   -1.2850    0.7319   -0.0518 C   0  0  0  0  0  0  0  0  0  0  0  0
    1.2873    1.4982   -0.7470 H   0  0  0  0  0  0  0  0  0  0  0  0
    2.0937   -0.0108   -0.1928 H   0  0  0  0  0  0  0  0  0  0  0  0
    1.4890    1.1366    0.9530 H   0  0  0  0  0  0  0  0  0  0  0  0
   -1.3866    1.1766   -1.0231 H   0  0  0  0  0  0  0  0  0  0  0  0
   -1.2296    1.5413    0.6628 H   0  0  0  0  0  0  0  0  0  0  0  0
   -2.1766    0.0954    0.2215 H   0  0  0  0  0  0  0  0  0  0  0  0
  1  2  1  0  0  0  0
  1  7  1  0  0  0  0
  3  2  1  0  0  0  0
  4  2  1  0  0  0  0
  4 10  1  0  0  0  0
  4  9  1  0  0  0  0
  5  1  1  0  0  0  0
  6  1  1  0  0  0  0
  8  4  1  0  0  0  0
M  END
$$$$
