Compound 028, distorted structure 09
 OpenBabel12112416303D

 10  9  0  0  0  0  0  0  0  0999 V2000
    1.2215    0.6442   -0.0052 C   0  0  0  0  0  0  0  0  0  0  0  0
    0.0581   -0.1061   -0.0873 C   0  0  0  0  0  0  0  0  0  0  0  0
    0.1073   -1.2363    0.0619 O   0  0  0  0  0  0  0  0  0  0  0  0
   -1.3634    0.7460   -0.0656 C   0  0  0  0  0  0  0  0  0  0  0  0
    1.3439    1.6254   -0.7692 H   0  0  0  0  0  0  0  0  0  0  0  0
    2.1393    0.1616   -0.3210 H   0  0  0  0  0  0  0  0  0  0  0  0
    1.5144    1.2053    0.9316 H   0  0  0  0  0  0  0  0  0  0  0  0
   -1.3994    1.2323   -1.1139 H   0  0  0  0  0  0  0  0  0  0  0  0
   -1.2159    1.4155    0.8393 H   0  0  0  0  0  0  0  0  0  0  0  0
   -2.0368    0.0841    0.2964 H   0  0  0  0  0  0  0  0  0  0  0  0
  1  7  1  0  0  0  0
  2  4  1  0  0  0  0
  2  1  1  0  0  0  0
  2  3  2  0  0  0  0
  4 10  1  0  0  0  0
  4  9  1  0  0  0  0
  5  1  1  0  0  0  0
  6  1  1  0  0  0  0
  8  4  1  0  0  0  0
M  END
$$$$
