Compound 031, distorted structure 02
 OpenBabel11072411363D

 11 11  0  0  0  0  0  0  0  0999 V2000
    1.5781    0.0280    0.0241 C   0  0  0  0  0  0  0  0  0  0  0  0
    0.4415   -1.0927    0.0003 C   0  0  0  0  0  0  0  0  0  0  0  0
   -0.6158    0.0243    0.0261 C   0  0  0  0  0  0  0  0  0  0  0  0
   -1.7847   -0.0245   -0.0133 O   0  0  0  0  0  0  0  0  0  0  0  0
    0.4373    1.1229   -0.0146 C   0  0  0  0  0  0  0  0  0  0  0  0
    2.2186    0.0181   -0.8792 H   0  0  0  0  0  0  0  0  0  0  0  0
    2.1611   -0.0241    0.8733 H   0  0  0  0  0  0  0  0  0  0  0  0
    0.4303   -1.7208    0.9065 H   0  0  0  0  0  0  0  0  0  0  0  0
    0.4282   -1.7688   -0.8706 H   0  0  0  0  0  0  0  0  0  0  0  0
    0.4021    1.7446    0.8890 H   0  0  0  0  0  0  0  0  0  0  0  0
    0.4368    1.7327   -0.9035 H   0  0  0  0  0  0  0  0  0  0  0  0
  1  7  1  0  0  0  0
  2  1  1  0  0  0  0
  2  3  1  0  0  0  0
  2  8  1  0  0  0  0
  4  3  2  0  0  0  0
  5  1  1  0  0  0  0
  5  3  1  0  0  0  0
  5 10  1  0  0  0  0
  6  1  1  0  0  0  0
  9  2  1  0  0  0  0
 11  5  1  0  0  0  0
M  END
$$$$
