Compound 031, distorted structure 03
 OpenBabel12102416393D

 11 11  0  0  0  0  0  0  0  0999 V2000
    1.5369   -0.0014   -0.0242 C   0  0  0  0  0  0  0  0  0  0  0  0
    0.4137   -1.0919    0.0173 C   0  0  0  0  0  0  0  0  0  0  0  0
   -0.6070    0.0156    0.0329 C   0  0  0  0  0  0  0  0  0  0  0  0
   -1.7518   -0.0027    0.0183 O   0  0  0  0  0  0  0  0  0  0  0  0
    0.4363    1.0878   -0.0290 C   0  0  0  0  0  0  0  0  0  0  0  0
    2.2177   -0.0411   -0.8826 H   0  0  0  0  0  0  0  0  0  0  0  0
    2.2203    0.0459    0.9236 H   0  0  0  0  0  0  0  0  0  0  0  0
    0.4380   -1.7362    0.8616 H   0  0  0  0  0  0  0  0  0  0  0  0
    0.4491   -1.7813   -0.8917 H   0  0  0  0  0  0  0  0  0  0  0  0
    0.4373    1.7587    0.8977 H   0  0  0  0  0  0  0  0  0  0  0  0
    0.3766    1.7926   -0.9201 H   0  0  0  0  0  0  0  0  0  0  0  0
  1  2  1  0  0  0  0
  1  7  1  0  0  0  0
  2  3  1  0  0  0  0
  2  8  1  0  0  0  0
  4  3  2  0  0  0  0
  5  1  1  0  0  0  0
  5  3  1  0  0  0  0
  5 10  1  0  0  0  0
  6  1  1  0  0  0  0
  9  2  1  0  0  0  0
 11  5  1  0  0  0  0
M  END
$$$$
