Compound 032, distorted structure 08
 OpenBabel11072411343D

 11 11  0  0  0  0  0  0  0  0999 V2000
   -1.0694    0.0723    0.0084 O   0  0  0  0  0  0  0  0  0  0  0  0
   -0.4326    1.1083    0.0024 C   0  0  0  0  0  0  0  0  0  0  0  0
    1.0046    0.6559   -0.0047 C   0  0  0  0  0  0  0  0  0  0  0  0
    0.9882   -0.6240   -0.0307 C   0  0  0  0  0  0  0  0  0  0  0  0
   -0.4102   -1.2425    0.0250 C   0  0  0  0  0  0  0  0  0  0  0  0
   -0.6065   -1.6826   -0.9819 H   0  0  0  0  0  0  0  0  0  0  0  0
   -0.5759   -1.8777    0.9517 H   0  0  0  0  0  0  0  0  0  0  0  0
    1.8810   -1.2208   -0.0543 H   0  0  0  0  0  0  0  0  0  0  0  0
    1.8893    1.3417   -0.0332 H   0  0  0  0  0  0  0  0  0  0  0  0
   -0.6712    1.8689   -0.9728 H   0  0  0  0  0  0  0  0  0  0  0  0
   -0.6717    1.7149    0.8368 H   0  0  0  0  0  0  0  0  0  0  0  0
  1  5  1  0  0  0  0
  2  1  1  0  0  0  0
  2 11  1  0  0  0  0
  3  2  1  0  0  0  0
  4  3  2  0  0  0  0
  4  5  1  0  0  0  0
  5  7  1  0  0  0  0
  6  5  1  0  0  0  0
  8  4  1  0  0  0  0
  9  3  1  0  0  0  0
 10  2  1  0  0  0  0
M  END
$$$$
