Compound 032, distorted structure 05
 OpenBabel12112416303D

 11 11  0  0  0  0  0  0  0  0999 V2000
   -1.2384   -0.0398   -0.0133 O   0  0  0  0  0  0  0  0  0  0  0  0
   -0.3857    1.2133   -0.0388 C   0  0  0  0  0  0  0  0  0  0  0  0
    1.0894    0.6450    0.0599 C   0  0  0  0  0  0  0  0  0  0  0  0
    1.0127   -0.5906    0.0312 C   0  0  0  0  0  0  0  0  0  0  0  0
   -0.3595   -1.2015   -0.0096 C   0  0  0  0  0  0  0  0  0  0  0  0
   -0.6421   -1.7298   -0.8903 H   0  0  0  0  0  0  0  0  0  0  0  0
   -0.5637   -1.7732    0.8678 H   0  0  0  0  0  0  0  0  0  0  0  0
    1.9552   -1.2851   -0.0091 H   0  0  0  0  0  0  0  0  0  0  0  0
    1.9893    1.3233   -0.0163 H   0  0  0  0  0  0  0  0  0  0  0  0
   -0.6324    1.8611   -0.9323 H   0  0  0  0  0  0  0  0  0  0  0  0
   -0.5677    1.8436    0.8150 H   0  0  0  0  0  0  0  0  0  0  0  0
  1  5  1  0  0  0  0
  2  1  1  0  0  0  0
  2  3  1  0  0  0  0
  2 11  1  0  0  0  0
  4  3  2  0  0  0  0
  5  4  1  0  0  0  0
  5  7  1  0  0  0  0
  6  5  1  0  0  0  0
  8  4  1  0  0  0  0
  9  3  1  0  0  0  0
 10  2  1  0  0  0  0
M  END
$$$$
