Compound 033 optimized with r2SCAN-3c
 OpenBabel12102416393D

 11 10  0  0  0  0  0  0  0  0999 V2000
    1.7596    0.6413   -0.0112 C   0  0  0  0  0  0  0  0  0  0  0  0
    0.4453   -0.0786    0.1199 C   0  0  0  0  0  0  0  0  0  0  0  0
    0.3207   -1.2361    0.4453 O   0  0  0  0  0  0  0  0  0  0  0  0
   -0.5996    0.7316   -0.1738 O   0  0  0  0  0  0  0  0  0  0  0  0
   -1.8981    0.1078   -0.0712 C   0  0  0  0  0  0  0  0  0  0  0  0
    2.2831    0.5871    0.9473 H   0  0  0  0  0  0  0  0  0  0  0  0
    1.6342    1.6824   -0.3096 H   0  0  0  0  0  0  0  0  0  0  0  0
    2.3731    0.1134   -0.7466 H   0  0  0  0  0  0  0  0  0  0  0  0
   -2.0697   -0.2496    0.9478 H   0  0  0  0  0  0  0  0  0  0  0  0
   -1.9708   -0.7364   -0.7624 H   0  0  0  0  0  0  0  0  0  0  0  0
   -2.6154    0.8856   -0.3342 H   0  0  0  0  0  0  0  0  0  0  0  0
  1  2  1  0  0  0  0
  1  6  1  0  0  0  0
  2  3  2  0  0  0  0
  4  5  1  0  0  0  0
  4  2  1  0  0  0  0
  5  9  1  0  0  0  0
  7  1  1  0  0  0  0
  8  1  1  0  0  0  0
 10  5  1  0  0  0  0
 11  5  1  0  0  0  0
M  END
$$$$
