Compound 034, distorted structure 01
 OpenBabel12102416393D

 11 11  0  0  0  0  0  0  0  0999 V2000
    0.7868    0.9547    0.0379 C   0  0  0  0  0  0  0  0  0  0  0  0
    1.1665    1.2825    1.0242 H   0  0  0  0  0  0  0  0  0  0  0  0
    1.1902    1.5944   -0.7514 H   0  0  0  0  0  0  0  0  0  0  0  0
    1.1137   -0.4099   -0.1941 O   0  0  0  0  0  0  0  0  0  0  0  0
   -0.0064   -1.1462    0.2017 C   0  0  0  0  0  0  0  0  0  0  0  0
   -1.1073   -0.3921   -0.2031 O   0  0  0  0  0  0  0  0  0  0  0  0
   -0.7630    0.9876    0.0442 C   0  0  0  0  0  0  0  0  0  0  0  0
   -1.1591    1.3166    1.0181 H   0  0  0  0  0  0  0  0  0  0  0  0
   -1.2209    1.5637   -0.7425 H   0  0  0  0  0  0  0  0  0  0  0  0
   -0.0081   -1.2579    1.3220 H   0  0  0  0  0  0  0  0  0  0  0  0
   -0.0108   -2.0836   -0.2850 H   0  0  0  0  0  0  0  0  0  0  0  0
  1  7  1  0  0  0  0
  1  2  1  0  0  0  0
  3  1  1  0  0  0  0
  4  1  1  0  0  0  0
  4  5  1  0  0  0  0
  5 10  1  0  0  0  0
  6  7  1  0  0  0  0
  6  5  1  0  0  0  0
  7  8  1  0  0  0  0
  9  7  1  0  0  0  0
 11  5  1  0  0  0  0
M  END
$$$$
