Compound 035, distorted structure 05
 OpenBabel12102416393D

 12 11  0  0  0  0  0  0  0  0999 V2000
   -1.2489   -0.6886    0.0675 C   0  0  0  0  0  0  0  0  0  0  0  0
   -2.1783   -0.1023   -0.2090 H   0  0  0  0  0  0  0  0  0  0  0  0
   -1.3117   -0.6517    1.2253 H   0  0  0  0  0  0  0  0  0  0  0  0
   -1.4325   -1.7187   -0.3180 H   0  0  0  0  0  0  0  0  0  0  0  0
   -0.0602    0.0470   -0.3212 C   0  0  0  0  0  0  0  0  0  0  0  0
    1.2484   -0.6510    0.0712 C   0  0  0  0  0  0  0  0  0  0  0  0
    1.2790   -0.8346    1.2406 H   0  0  0  0  0  0  0  0  0  0  0  0
    1.3136   -1.7490   -0.2906 H   0  0  0  0  0  0  0  0  0  0  0  0
    2.1824   -0.2756   -0.3052 H   0  0  0  0  0  0  0  0  0  0  0  0
   -0.0278   -0.0932   -1.4370 H   0  0  0  0  0  0  0  0  0  0  0  0
   -0.1243    1.3920    0.0485 O   0  0  0  0  0  0  0  0  0  0  0  0
    0.7889    1.8119   -0.1851 H   0  0  0  0  0  0  0  0  0  0  0  0
  1  3  1  0  0  0  0
  2  1  1  0  0  0  0
  4  1  1  0  0  0  0
  5 11  1  0  0  0  0
  5  1  1  0  0  0  0
  5  6  1  0  0  0  0
  6  7  1  0  0  0  0
  8  6  1  0  0  0  0
  9  6  1  0  0  0  0
 10  5  1  0  0  0  0
 12 11  1  0  0  0  0
M  END
$$$$
