Compound 035, distorted structure 07
 OpenBabel12112416303D

 12 11  0  0  0  0  0  0  0  0999 V2000
   -1.2187   -0.6709    0.1680 C   0  0  0  0  0  0  0  0  0  0  0  0
   -2.1837   -0.0675   -0.1769 H   0  0  0  0  0  0  0  0  0  0  0  0
   -1.2922   -0.6252    1.3135 H   0  0  0  0  0  0  0  0  0  0  0  0
   -1.2981   -1.7738   -0.2616 H   0  0  0  0  0  0  0  0  0  0  0  0
    0.0845   -0.0473   -0.3482 C   0  0  0  0  0  0  0  0  0  0  0  0
    1.3274   -0.7685    0.1365 C   0  0  0  0  0  0  0  0  0  0  0  0
    1.2938   -0.7817    1.1352 H   0  0  0  0  0  0  0  0  0  0  0  0
    1.2565   -1.6901   -0.2276 H   0  0  0  0  0  0  0  0  0  0  0  0
    2.1411   -0.3142   -0.2400 H   0  0  0  0  0  0  0  0  0  0  0  0
    0.0138   -0.1142   -1.4725 H   0  0  0  0  0  0  0  0  0  0  0  0
   -0.0966    1.3772    0.0756 O   0  0  0  0  0  0  0  0  0  0  0  0
    0.7854    1.8106   -0.1578 H   0  0  0  0  0  0  0  0  0  0  0  0
  1  3  1  0  0  0  0
  2  1  1  0  0  0  0
  4  1  1  0  0  0  0
  5 11  1  0  0  0  0
  5  6  1  0  0  0  0
  5  1  1  0  0  0  0
  6  7  1  0  0  0  0
  8  6  1  0  0  0  0
  9  6  1  0  0  0  0
 10  5  1  0  0  0  0
 12 11  1  0  0  0  0
M  END
$$$$
