Compound 035, distorted structure 06
 OpenBabel11072411323D

 12 11  0  0  0  0  0  0  0  0999 V2000
   -1.3140   -0.7150    0.1696 C   0  0  0  0  0  0  0  0  0  0  0  0
   -2.2263   -0.1826   -0.1870 H   0  0  0  0  0  0  0  0  0  0  0  0
   -1.1995   -0.6862    1.1770 H   0  0  0  0  0  0  0  0  0  0  0  0
   -1.2520   -1.6455   -0.2598 H   0  0  0  0  0  0  0  0  0  0  0  0
   -0.0560    0.0418   -0.3810 C   0  0  0  0  0  0  0  0  0  0  0  0
    1.2750   -0.7676    0.2096 C   0  0  0  0  0  0  0  0  0  0  0  0
    1.3497   -0.8271    1.2141 H   0  0  0  0  0  0  0  0  0  0  0  0
    1.2041   -1.7133   -0.2785 H   0  0  0  0  0  0  0  0  0  0  0  0
    2.2387   -0.2616   -0.1644 H   0  0  0  0  0  0  0  0  0  0  0  0
    0.0107   -0.0905   -1.5078 H   0  0  0  0  0  0  0  0  0  0  0  0
   -0.0796    1.4019    0.1446 O   0  0  0  0  0  0  0  0  0  0  0  0
    0.7458    1.6918   -0.1049 H   0  0  0  0  0  0  0  0  0  0  0  0
  1  3  1  0  0  0  0
  2  1  1  0  0  0  0
  4  1  1  0  0  0  0
  5 11  1  0  0  0  0
  5  1  1  0  0  0  0
  5  6  1  0  0  0  0
  6  7  1  0  0  0  0
  8  6  1  0  0  0  0
  9  6  1  0  0  0  0
 10  5  1  0  0  0  0
 12 11  1  0  0  0  0
M  END
$$$$
