Compound 036, distorted structure 07
 OpenBabel12102416393D

 12 11  0  0  0  0  0  0  0  0999 V2000
    1.8790   -0.1025    0.0262 C   0  0  0  0  0  0  0  0  0  0  0  0
    0.5363    0.5272    0.0643 C   0  0  0  0  0  0  0  0  0  0  0  0
   -0.4703   -0.5918    0.0035 C   0  0  0  0  0  0  0  0  0  0  0  0
   -0.3956   -1.1540   -0.9930 H   0  0  0  0  0  0  0  0  0  0  0  0
   -0.4682   -1.1775    0.8756 H   0  0  0  0  0  0  0  0  0  0  0  0
   -1.8590    0.0895    0.0526 O   0  0  0  0  0  0  0  0  0  0  0  0
   -2.4457   -0.5018   -0.0721 H   0  0  0  0  0  0  0  0  0  0  0  0
    0.4311    1.0678    0.9971 H   0  0  0  0  0  0  0  0  0  0  0  0
    0.4677    1.1820   -0.7955 H   0  0  0  0  0  0  0  0  0  0  0  0
    2.1393   -0.7287   -0.9992 H   0  0  0  0  0  0  0  0  0  0  0  0
    2.7616    0.5953   -0.0069 H   0  0  0  0  0  0  0  0  0  0  0  0
    2.0466   -0.8096    0.7765 H   0  0  0  0  0  0  0  0  0  0  0  0
  1  2  1  0  0  0  0
  1 12  1  0  0  0  0
  2  8  1  0  0  0  0
  3  6  1  0  0  0  0
  3  2  1  0  0  0  0
  3  5  1  0  0  0  0
  4  3  1  0  0  0  0
  7  6  1  0  0  0  0
  9  2  1  0  0  0  0
 10  1  1  0  0  0  0
 11  1  1  0  0  0  0
M  END
$$$$
