Compound 036 optimized with r2SCAN-3c
 OpenBabel12102416393D

 12 11  0  0  0  0  0  0  0  0999 V2000
    1.9550   -0.1050   -0.0281 C   0  0  0  0  0  0  0  0  0  0  0  0
    0.5667    0.5286    0.0265 C   0  0  0  0  0  0  0  0  0  0  0  0
   -0.5318   -0.5165   -0.0248 C   0  0  0  0  0  0  0  0  0  0  0  0
   -0.4412   -1.1051   -0.9536 H   0  0  0  0  0  0  0  0  0  0  0  0
   -0.4234   -1.2113    0.8254 H   0  0  0  0  0  0  0  0  0  0  0  0
   -1.7918    0.1594    0.0280 O   0  0  0  0  0  0  0  0  0  0  0  0
   -2.4914   -0.5008   -0.0030 H   0  0  0  0  0  0  0  0  0  0  0  0
    0.4488    1.1155    0.9456 H   0  0  0  0  0  0  0  0  0  0  0  0
    0.4286    1.2225   -0.8118 H   0  0  0  0  0  0  0  0  0  0  0  0
    2.0937   -0.6778   -0.9520 H   0  0  0  0  0  0  0  0  0  0  0  0
    2.7380    0.6575    0.0109 H   0  0  0  0  0  0  0  0  0  0  0  0
    2.1131   -0.7880    0.8142 H   0  0  0  0  0  0  0  0  0  0  0  0
  1 11  1  0  0  0  0
  1  2  1  0  0  0  0
  1 12  1  0  0  0  0
  2  8  1  0  0  0  0
  3  2  1  0  0  0  0
  3  6  1  0  0  0  0
  3  5  1  0  0  0  0
  4  3  1  0  0  0  0
  7  6  1  0  0  0  0
  9  2  1  0  0  0  0
 10  1  1  0  0  0  0
M  END
$$$$
