Compound 036, distorted structure 09
 OpenBabel12112416303D

 12 11  0  0  0  0  0  0  0  0999 V2000
    1.9819   -0.1693   -0.0800 C   0  0  0  0  0  0  0  0  0  0  0  0
    0.5342    0.6350    0.0334 C   0  0  0  0  0  0  0  0  0  0  0  0
   -0.4341   -0.4110   -0.0380 C   0  0  0  0  0  0  0  0  0  0  0  0
   -0.5373   -1.1413   -0.9391 H   0  0  0  0  0  0  0  0  0  0  0  0
   -0.4543   -1.2452    0.8976 H   0  0  0  0  0  0  0  0  0  0  0  0
   -1.7198    0.0705    0.0838 O   0  0  0  0  0  0  0  0  0  0  0  0
   -2.5608   -0.5094   -0.0643 H   0  0  0  0  0  0  0  0  0  0  0  0
    0.4218    1.0351    0.9027 H   0  0  0  0  0  0  0  0  0  0  0  0
    0.4504    1.2989   -0.7834 H   0  0  0  0  0  0  0  0  0  0  0  0
    2.1194   -0.7405   -0.8883 H   0  0  0  0  0  0  0  0  0  0  0  0
    2.6253    0.6824    0.0011 H   0  0  0  0  0  0  0  0  0  0  0  0
    1.9999   -0.8915    0.8008 H   0  0  0  0  0  0  0  0  0  0  0  0
  1 11  1  0  0  0  0
  1  2  1  0  0  0  0
  1 12  1  0  0  0  0
  2  8  1  0  0  0  0
  3  2  1  0  0  0  0
  3  6  1  0  0  0  0
  3  5  1  0  0  0  0
  4  3  1  0  0  0  0
  7  6  1  0  0  0  0
  9  2  1  0  0  0  0
 10  1  1  0  0  0  0
M  END
$$$$
