Compound 037, distorted structure 07
 OpenBabel11072411333D

 12 11  0  0  0  0  0  0  0  0999 V2000
    1.7478   -0.7407    0.0343 C   0  0  0  0  0  0  0  0  0  0  0  0
    0.4088    0.0451    0.0440 N   0  0  0  0  0  0  0  0  0  0  0  0
    0.4880    1.4986   -0.0543 C   0  0  0  0  0  0  0  0  0  0  0  0
   -0.7890   -0.6663   -0.0500 C   0  0  0  0  0  0  0  0  0  0  0  0
   -1.9269   -0.0337    0.0333 O   0  0  0  0  0  0  0  0  0  0  0  0
    1.4610   -1.9016   -0.0646 H   0  0  0  0  0  0  0  0  0  0  0  0
    2.2815   -0.5768    0.8250 H   0  0  0  0  0  0  0  0  0  0  0  0
    2.2027   -0.5074   -0.9647 H   0  0  0  0  0  0  0  0  0  0  0  0
    1.0276    1.8043   -0.9797 H   0  0  0  0  0  0  0  0  0  0  0  0
    1.0486    1.7676    0.9758 H   0  0  0  0  0  0  0  0  0  0  0  0
   -0.4179    1.7767   -0.0156 H   0  0  0  0  0  0  0  0  0  0  0  0
   -0.7765   -1.7269   -0.0106 H   0  0  0  0  0  0  0  0  0  0  0  0
  1  2  1  0  0  0  0
  1  7  1  0  0  0  0
  3 11  1  0  0  0  0
  3  2  1  0  0  0  0
  3 10  1  0  0  0  0
  4 12  1  0  0  0  0
  4  5  2  0  0  0  0
  4  2  1  0  0  0  0
  6  1  1  0  0  0  0
  8  1  1  0  0  0  0
  9  3  1  0  0  0  0
M  END
$$$$
