Compound 037 optimized with r2SCAN-3c
 OpenBabel12112416303D

 12 11  0  0  0  0  0  0  0  0999 V2000
    1.6620   -0.7717   -0.0000 C   0  0  0  0  0  0  0  0  0  0  0  0
    0.4252   -0.0150    0.0004 N   0  0  0  0  0  0  0  0  0  0  0  0
    0.5234    1.4355   -0.0011 C   0  0  0  0  0  0  0  0  0  0  0  0
   -0.7906   -0.6272    0.0009 C   0  0  0  0  0  0  0  0  0  0  0  0
   -1.8698   -0.0601    0.0007 O   0  0  0  0  0  0  0  0  0  0  0  0
    1.4384   -1.8427    0.0025 H   0  0  0  0  0  0  0  0  0  0  0  0
    2.2650   -0.5411    0.8887 H   0  0  0  0  0  0  0  0  0  0  0  0
    2.2624   -0.5447   -0.8916 H   0  0  0  0  0  0  0  0  0  0  0  0
    1.0612    1.7849   -0.8923 H   0  0  0  0  0  0  0  0  0  0  0  0
    1.0605    1.7868    0.8897 H   0  0  0  0  0  0  0  0  0  0  0  0
   -0.4874    1.8484   -0.0019 H   0  0  0  0  0  0  0  0  0  0  0  0
   -0.6967   -1.7335    0.0017 H   0  0  0  0  0  0  0  0  0  0  0  0
  1  2  1  0  0  0  0
  1  6  1  0  0  0  0
  1  7  1  0  0  0  0
  2  4  1  0  0  0  0
  3  2  1  0  0  0  0
  3 10  1  0  0  0  0
  4 12  1  0  0  0  0
  5  4  2  0  0  0  0
  8  1  1  0  0  0  0
  9  3  1  0  0  0  0
 11  3  1  0  0  0  0
M  END
$$$$
