Compound 037, distorted structure 03
 OpenBabel12102416393D

 12 11  0  0  0  0  0  0  0  0999 V2000
    1.6961   -0.7577   -0.0231 C   0  0  0  0  0  0  0  0  0  0  0  0
    0.4053   -0.0454   -0.0376 N   0  0  0  0  0  0  0  0  0  0  0  0
    0.4794    1.3877    0.0325 C   0  0  0  0  0  0  0  0  0  0  0  0
   -0.8332   -0.6311    0.0306 C   0  0  0  0  0  0  0  0  0  0  0  0
   -1.8950   -0.0926   -0.0508 O   0  0  0  0  0  0  0  0  0  0  0  0
    1.4792   -1.8494    0.0063 H   0  0  0  0  0  0  0  0  0  0  0  0
    2.2192   -0.5316    0.8517 H   0  0  0  0  0  0  0  0  0  0  0  0
    2.2840   -0.5228   -0.9322 H   0  0  0  0  0  0  0  0  0  0  0  0
    1.0572    1.7420   -0.9162 H   0  0  0  0  0  0  0  0  0  0  0  0
    1.1104    1.7506    0.8665 H   0  0  0  0  0  0  0  0  0  0  0  0
   -0.4538    1.8639    0.0361 H   0  0  0  0  0  0  0  0  0  0  0  0
   -0.6882   -1.7620    0.0326 H   0  0  0  0  0  0  0  0  0  0  0  0
  1  6  1  0  0  0  0
  1  7  1  0  0  0  0
  2  1  1  0  0  0  0
  2  4  1  0  0  0  0
  2  3  1  0  0  0  0
  3 11  1  0  0  0  0
  3 10  1  0  0  0  0
  4 12  1  0  0  0  0
  5  4  2  0  0  0  0
  8  1  1  0  0  0  0
  9  3  1  0  0  0  0
M  END
$$$$
