Compound 037, distorted structure 01
 OpenBabel12102416393D

 12 11  0  0  0  0  0  0  0  0999 V2000
    1.6376   -0.7978   -0.0015 C   0  0  0  0  0  0  0  0  0  0  0  0
    0.4200   -0.0184    0.0053 N   0  0  0  0  0  0  0  0  0  0  0  0
    0.5082    1.4462   -0.0032 C   0  0  0  0  0  0  0  0  0  0  0  0
   -0.7996   -0.6237    0.0158 C   0  0  0  0  0  0  0  0  0  0  0  0
   -1.8768   -0.0340   -0.0163 O   0  0  0  0  0  0  0  0  0  0  0  0
    1.4441   -1.8553    0.0238 H   0  0  0  0  0  0  0  0  0  0  0  0
    2.2613   -0.5347    0.8721 H   0  0  0  0  0  0  0  0  0  0  0  0
    2.2703   -0.5687   -0.9112 H   0  0  0  0  0  0  0  0  0  0  0  0
    1.0464    1.7965   -0.8896 H   0  0  0  0  0  0  0  0  0  0  0  0
    1.0441    1.8067    0.8712 H   0  0  0  0  0  0  0  0  0  0  0  0
   -0.4700    1.8511   -0.0090 H   0  0  0  0  0  0  0  0  0  0  0  0
   -0.7064   -1.7186    0.0032 H   0  0  0  0  0  0  0  0  0  0  0  0
  1  2  1  0  0  0  0
  1  6  1  0  0  0  0
  1  7  1  0  0  0  0
  2  4  1  0  0  0  0
  3  2  1  0  0  0  0
  3 10  1  0  0  0  0
  5  4  2  0  0  0  0
  8  1  1  0  0  0  0
  9  3  1  0  0  0  0
 11  3  1  0  0  0  0
 12  4  1  0  0  0  0
M  END
$$$$
