Compound 037, distorted structure 09
 OpenBabel12102416393D

 12 11  0  0  0  0  0  0  0  0999 V2000
    1.7059   -0.7161    0.0999 C   0  0  0  0  0  0  0  0  0  0  0  0
    0.3813    0.0388    0.0822 N   0  0  0  0  0  0  0  0  0  0  0  0
    0.6433    1.4356   -0.0825 C   0  0  0  0  0  0  0  0  0  0  0  0
   -0.7650   -0.5762   -0.0690 C   0  0  0  0  0  0  0  0  0  0  0  0
   -1.9266   -0.1261    0.1149 O   0  0  0  0  0  0  0  0  0  0  0  0
    1.4125   -1.7928   -0.0507 H   0  0  0  0  0  0  0  0  0  0  0  0
    2.1561   -0.5925    1.0006 H   0  0  0  0  0  0  0  0  0  0  0  0
    2.2634   -0.4580   -0.9676 H   0  0  0  0  0  0  0  0  0  0  0  0
    1.0702    1.7604   -0.8983 H   0  0  0  0  0  0  0  0  0  0  0  0
    1.0963    1.7976    0.9539 H   0  0  0  0  0  0  0  0  0  0  0  0
   -0.4886    1.7538   -0.0234 H   0  0  0  0  0  0  0  0  0  0  0  0
   -0.8052   -1.7989    0.0738 H   0  0  0  0  0  0  0  0  0  0  0  0
  1  7  1  0  0  0  0
  2  1  1  0  0  0  0
  3 11  1  0  0  0  0
  3  2  1  0  0  0  0
  3 10  1  0  0  0  0
  4 12  1  0  0  0  0
  4  2  1  0  0  0  0
  4  5  2  0  0  0  0
  6  1  1  0  0  0  0
  8  1  1  0  0  0  0
  9  3  1  0  0  0  0
M  END
$$$$
