Compound 039 optimized with r2SCAN-3c
 OpenBabel12112416303D

 12 12  0  0  0  0  0  0  0  0999 V2000
    1.4925   -0.6767   -0.2129 C   0  0  0  0  0  0  0  0  0  0  0  0
    0.1241   -1.2340    0.1731 C   0  0  0  0  0  0  0  0  0  0  0  0
   -0.8113   -0.0502   -0.0163 C   0  0  0  0  0  0  0  0  0  0  0  0
   -2.0077   -0.0467   -0.0999 O   0  0  0  0  0  0  0  0  0  0  0  0
   -0.0725    1.0985   -0.0758 O   0  0  0  0  0  0  0  0  0  0  0  0
    1.3316    0.8082    0.1264 C   0  0  0  0  0  0  0  0  0  0  0  0
    1.6636   -0.8001   -1.2873 H   0  0  0  0  0  0  0  0  0  0  0  0
    2.3274   -1.1343    0.3236 H   0  0  0  0  0  0  0  0  0  0  0  0
    0.0775   -1.5238    1.2308 H   0  0  0  0  0  0  0  0  0  0  0  0
   -0.2194   -2.0832   -0.4201 H   0  0  0  0  0  0  0  0  0  0  0  0
    1.5773    1.0209    1.1751 H   0  0  0  0  0  0  0  0  0  0  0  0
    1.9028    1.4788   -0.5198 H   0  0  0  0  0  0  0  0  0  0  0  0
  1  6  1  0  0  0  0
  1  2  1  0  0  0  0
  1  8  1  0  0  0  0
  2  9  1  0  0  0  0
  3  2  1  0  0  0  0
  4  3  2  0  0  0  0
  5  3  1  0  0  0  0
  5  6  1  0  0  0  0
  6 11  1  0  0  0  0
  7  1  1  0  0  0  0
 10  2  1  0  0  0  0
 12  6  1  0  0  0  0
M  END
$$$$
