Compound 040, distorted structure 04
 OpenBabel12102416393D

 13 12  0  0  0  0  0  0  0  0999 V2000
   -0.6923    0.7772    0.0754 C   0  0  0  0  0  0  0  0  0  0  0  0
    0.5407   -0.0931   -0.0045 C   0  0  0  0  0  0  0  0  0  0  0  0
    0.5639   -1.4830    0.0445 C   0  0  0  0  0  0  0  0  0  0  0  0
    1.3811   -2.0344   -0.0281 H   0  0  0  0  0  0  0  0  0  0  0  0
   -0.4072   -1.9511    0.1618 H   0  0  0  0  0  0  0  0  0  0  0  0
    1.8421    0.6847   -0.0476 C   0  0  0  0  0  0  0  0  0  0  0  0
    1.8229    1.3301   -0.9640 H   0  0  0  0  0  0  0  0  0  0  0  0
    1.8656    1.3410    0.7806 H   0  0  0  0  0  0  0  0  0  0  0  0
    2.6603    0.0709   -0.0729 H   0  0  0  0  0  0  0  0  0  0  0  0
   -0.6303    1.5179   -0.7177 H   0  0  0  0  0  0  0  0  0  0  0  0
   -0.7436    1.2208    1.0873 H   0  0  0  0  0  0  0  0  0  0  0  0
   -1.9196    0.0653   -0.0430 O   0  0  0  0  0  0  0  0  0  0  0  0
   -1.9601   -0.4443   -0.8849 H   0  0  0  0  0  0  0  0  0  0  0  0
  1 11  1  0  0  0  0
  2  3  2  0  0  0  0
  2  1  1  0  0  0  0
  3  5  1  0  0  0  0
  4  3  1  0  0  0  0
  6  2  1  0  0  0  0
  6  8  1  0  0  0  0
  7  6  1  0  0  0  0
  9  6  1  0  0  0  0
 10  1  1  0  0  0  0
 12  1  1  0  0  0  0
 13 12  1  0  0  0  0
M  END
$$$$
