Compound 041, distorted structure 08
 OpenBabel12102416393D

 13 13  0  0  0  0  0  0  0  0999 V2000
   -1.1031   -0.6577    0.2641 C   0  0  0  0  0  0  0  0  0  0  0  0
   -0.9464    0.7782   -0.2900 C   0  0  0  0  0  0  0  0  0  0  0  0
    0.3409    1.2097    0.2215 C   0  0  0  0  0  0  0  0  0  0  0  0
    1.2604    0.0848   -0.0073 O   0  0  0  0  0  0  0  0  0  0  0  0
    0.3932   -1.2056   -0.2144 C   0  0  0  0  0  0  0  0  0  0  0  0
   -1.7660   -1.3970   -0.1748 H   0  0  0  0  0  0  0  0  0  0  0  0
   -1.2347   -0.8655    1.2886 H   0  0  0  0  0  0  0  0  0  0  0  0
   -1.7382    1.2938    0.1941 H   0  0  0  0  0  0  0  0  0  0  0  0
   -1.2155    0.6994   -1.3415 H   0  0  0  0  0  0  0  0  0  0  0  0
    0.3979    1.4332    1.2610 H   0  0  0  0  0  0  0  0  0  0  0  0
    0.8167    1.8841   -0.4279 H   0  0  0  0  0  0  0  0  0  0  0  0
    0.8098   -1.9406    0.5230 H   0  0  0  0  0  0  0  0  0  0  0  0
    0.3973   -1.5125   -1.0982 H   0  0  0  0  0  0  0  0  0  0  0  0
  1  7  1  0  0  0  0
  2  8  1  0  0  0  0
  2  3  1  0  0  0  0
  2  1  1  0  0  0  0
  3 10  1  0  0  0  0
  4  3  1  0  0  0  0
  5  4  1  0  0  0  0
  5  1  1  0  0  0  0
  5 12  1  0  0  0  0
  6  1  1  0  0  0  0
  9  2  1  0  0  0  0
 11  3  1  0  0  0  0
 13  5  1  0  0  0  0
M  END
$$$$
