Compound 041 optimized with r2SCAN-3c
 OpenBabel12112416303D

 13 13  0  0  0  0  0  0  0  0999 V2000
   -1.0310   -0.7303    0.2315 C   0  0  0  0  0  0  0  0  0  0  0  0
   -1.0312    0.7300   -0.2317 C   0  0  0  0  0  0  0  0  0  0  0  0
    0.3833    1.1659    0.1449 C   0  0  0  0  0  0  0  0  0  0  0  0
    1.2124    0.0003   -0.0005 O   0  0  0  0  0  0  0  0  0  0  0  0
    0.3838   -1.1659   -0.1446 C   0  0  0  0  0  0  0  0  0  0  0  0
   -1.8025   -1.3397   -0.2481 H   0  0  0  0  0  0  0  0  0  0  0  0
   -1.1720   -0.7840    1.3175 H   0  0  0  0  0  0  0  0  0  0  0  0
   -1.8030    1.3392    0.2477 H   0  0  0  0  0  0  0  0  0  0  0  0
   -1.1717    0.7838   -1.3177 H   0  0  0  0  0  0  0  0  0  0  0  0
    0.4247    1.5135    1.1896 H   0  0  0  0  0  0  0  0  0  0  0  0
    0.7796    1.9588   -0.5003 H   0  0  0  0  0  0  0  0  0  0  0  0
    0.7804   -1.9580    0.5014 H   0  0  0  0  0  0  0  0  0  0  0  0
    0.4254   -1.5144   -1.1889 H   0  0  0  0  0  0  0  0  0  0  0  0
  1  7  1  0  0  0  0
  2  3  1  0  0  0  0
  2  1  1  0  0  0  0
  2  8  1  0  0  0  0
  3 10  1  0  0  0  0
  4  3  1  0  0  0  0
  5  4  1  0  0  0  0
  5  1  1  0  0  0  0
  5 12  1  0  0  0  0
  6  1  1  0  0  0  0
  9  2  1  0  0  0  0
 11  3  1  0  0  0  0
 13  5  1  0  0  0  0
M  END
$$$$
