Compound 043 optimized with r2SCAN-3c
 OpenBabel11072411443D

 13 12  0  0  1  0  0  0  0  0999 V2000
   -1.4193   -1.1022   -0.5074 C   0  0  0  0  0  0  0  0  0  0  0  0
   -0.7511   -0.0930    0.4261 C   0  0  1  0  0  0  0  0  0  0  0  0
   -0.9534   -2.0829   -0.3901 H   0  0  0  0  0  0  0  0  0  0  0  0
   -1.3098   -0.7882   -1.5517 H   0  0  0  0  0  0  0  0  0  0  0  0
   -2.4862   -1.1915   -0.2758 H   0  0  0  0  0  0  0  0  0  0  0  0
    0.7632   -0.1224    0.1568 C   0  0  0  0  0  0  0  0  0  0  0  0
   -0.8844   -0.4254    1.4655 H   0  0  0  0  0  0  0  0  0  0  0  0
   -1.2773    1.2626    0.1835 N   0  0  0  0  0  0  0  0  0  0  0  0
    1.2267    0.9354   -0.5299 O   0  0  0  0  0  0  0  0  0  0  0  0
    0.4445    1.5214   -0.6525 H   0  0  0  0  0  0  0  0  0  0  0  0
    1.4652   -1.0389    0.5024 O   0  0  0  0  0  0  0  0  0  0  0  0
   -2.2261    1.2305   -0.1693 H   0  0  0  0  0  0  0  0  0  0  0  0
   -1.2878    1.8132    1.0344 H   0  0  0  0  0  0  0  0  0  0  0  0
  1  3  1  0  0  0  0
  1  5  1  0  0  0  0
  1  2  1  0  0  0  0
  2  7  1  1  0  0  0
  4  1  1  0  0  0  0
  6  2  1  0  0  0  0
  6 11  2  0  0  0  0
  8  2  1  0  0  0  0
  8 13  1  0  0  0  0
  9  6  1  0  0  0  0
 10  9  1  0  0  0  0
 12  8  1  0  0  0  0
M  END
$$$$
