Compound 044, distorted structure 04
 OpenBabel12102416393D

 14 14  0  0  0  0  0  0  0  0999 V2000
   -1.4872   -0.6937   -0.2234 C   0  0  0  0  0  0  0  0  0  0  0  0
   -1.4026    0.6823    0.1842 C   0  0  0  0  0  0  0  0  0  0  0  0
   -0.0141    1.2437   -0.1120 C   0  0  0  0  0  0  0  0  0  0  0  0
    0.8533    0.0002   -0.0308 C   0  0  0  0  0  0  0  0  0  0  0  0
    2.1008    0.0124   -0.0457 O   0  0  0  0  0  0  0  0  0  0  0  0
   -0.0764   -1.2324    0.1234 C   0  0  0  0  0  0  0  0  0  0  0  0
   -1.6129   -0.7600   -1.3737 H   0  0  0  0  0  0  0  0  0  0  0  0
   -2.2109   -1.3264    0.2402 H   0  0  0  0  0  0  0  0  0  0  0  0
   -1.5884    0.7388    1.3498 H   0  0  0  0  0  0  0  0  0  0  0  0
   -2.2362    1.3356   -0.1875 H   0  0  0  0  0  0  0  0  0  0  0  0
    0.2955    2.1027    0.4296 H   0  0  0  0  0  0  0  0  0  0  0  0
   -0.0271    1.5813   -1.2374 H   0  0  0  0  0  0  0  0  0  0  0  0
    0.0131   -1.5049    1.2096 H   0  0  0  0  0  0  0  0  0  0  0  0
    0.3796   -2.0472   -0.4427 H   0  0  0  0  0  0  0  0  0  0  0  0
  1  6  1  0  0  0  0
  1  2  1  0  0  0  0
  1  8  1  0  0  0  0
  2  9  1  0  0  0  0
  3  4  1  0  0  0  0
  3  2  1  0  0  0  0
  3 11  1  0  0  0  0
  4  6  1  0  0  0  0
  5  4  2  0  0  0  0
  6 13  1  0  0  0  0
  7  1  1  0  0  0  0
 10  2  1  0  0  0  0
 12  3  1  0  0  0  0
 14  6  1  0  0  0  0
M  END
$$$$
