Compound 044, distorted structure 07
 OpenBabel11072411433D

 14 14  0  0  0  0  0  0  0  0999 V2000
   -1.5282   -0.7799   -0.3354 C   0  0  0  0  0  0  0  0  0  0  0  0
   -1.4768    0.7786    0.2342 C   0  0  0  0  0  0  0  0  0  0  0  0
   -0.0846    1.2241   -0.0357 C   0  0  0  0  0  0  0  0  0  0  0  0
    0.8614   -0.0847    0.0691 C   0  0  0  0  0  0  0  0  0  0  0  0
    1.9968   -0.0286    0.0021 O   0  0  0  0  0  0  0  0  0  0  0  0
   -0.0236   -1.2347    0.2145 C   0  0  0  0  0  0  0  0  0  0  0  0
   -1.4911   -0.6859   -1.3921 H   0  0  0  0  0  0  0  0  0  0  0  0
   -2.3161   -1.4249    0.2526 H   0  0  0  0  0  0  0  0  0  0  0  0
   -1.6826    0.6993    1.3165 H   0  0  0  0  0  0  0  0  0  0  0  0
   -2.3409    1.2777   -0.2197 H   0  0  0  0  0  0  0  0  0  0  0  0
    0.2547    2.1017    0.5607 H   0  0  0  0  0  0  0  0  0  0  0  0
   -0.0762    1.5282   -1.1259 H   0  0  0  0  0  0  0  0  0  0  0  0
    0.0781   -1.5514    1.2813 H   0  0  0  0  0  0  0  0  0  0  0  0
    0.4021   -1.9558   -0.4242 H   0  0  0  0  0  0  0  0  0  0  0  0
  1  6  1  0  0  0  0
  1  2  1  0  0  0  0
  1  8  1  0  0  0  0
  2  9  1  0  0  0  0
  3  4  1  0  0  0  0
  3  2  1  0  0  0  0
  3 11  1  0  0  0  0
  4  6  1  0  0  0  0
  5  4  2  0  0  0  0
  6 13  1  0  0  0  0
  7  1  1  0  0  0  0
 10  2  1  0  0  0  0
 12  3  1  0  0  0  0
 14  6  1  0  0  0  0
M  END
$$$$
