Compound 044, distorted structure 02
 OpenBabel11072411433D

 14 14  0  0  0  0  0  0  0  0999 V2000
   -1.4235   -0.7229   -0.2576 C   0  0  0  0  0  0  0  0  0  0  0  0
   -1.4294    0.7608    0.2524 C   0  0  0  0  0  0  0  0  0  0  0  0
   -0.0453    1.2556   -0.1489 C   0  0  0  0  0  0  0  0  0  0  0  0
    0.8272    0.0072    0.0192 C   0  0  0  0  0  0  0  0  0  0  0  0
    2.0399    0.0240    0.0276 O   0  0  0  0  0  0  0  0  0  0  0  0
   -0.0340   -1.2121    0.1057 C   0  0  0  0  0  0  0  0  0  0  0  0
   -1.5935   -0.7744   -1.3020 H   0  0  0  0  0  0  0  0  0  0  0  0
   -2.2445   -1.3288    0.2483 H   0  0  0  0  0  0  0  0  0  0  0  0
   -1.5842    0.7647    1.2961 H   0  0  0  0  0  0  0  0  0  0  0  0
   -2.2751    1.3218   -0.2369 H   0  0  0  0  0  0  0  0  0  0  0  0
    0.3552    2.0452    0.4491 H   0  0  0  0  0  0  0  0  0  0  0  0
    0.0279    1.5429   -1.1849 H   0  0  0  0  0  0  0  0  0  0  0  0
    0.0082   -1.5486    1.2059 H   0  0  0  0  0  0  0  0  0  0  0  0
    0.3624   -2.0375   -0.4924 H   0  0  0  0  0  0  0  0  0  0  0  0
  1  6  1  0  0  0  0
  1  8  1  0  0  0  0
  1  2  1  0  0  0  0
  2  9  1  0  0  0  0
  3  4  1  0  0  0  0
  3  2  1  0  0  0  0
  3 11  1  0  0  0  0
  4  5  2  0  0  0  0
  4  6  1  0  0  0  0
  6 13  1  0  0  0  0
  7  1  1  0  0  0  0
 10  2  1  0  0  0  0
 12  3  1  0  0  0  0
 14  6  1  0  0  0  0
M  END
$$$$
