Compound 045 optimized with r2SCAN-3c
 OpenBabel12102416393D

 14 15  0  0  1  0  0  0  0  0999 V2000
    0.7299   -0.7330    0.4124 C   0  0  1  0  0  0  0  0  0  0  0  0
    0.7299    0.7331    0.4122 C   0  0  2  0  0  0  0  0  0  0  0  0
   -0.6791    1.2288    0.1836 C   0  0  0  0  0  0  0  0  0  0  0  0
   -1.4141   -0.0001   -0.3961 C   0  0  0  0  0  0  0  0  0  0  0  0
   -0.7197    2.0967   -0.4836 H   0  0  0  0  0  0  0  0  0  0  0  0
   -1.1016    1.5303    1.1515 H   0  0  0  0  0  0  0  0  0  0  0  0
   -0.6790   -1.2288    0.1837 C   0  0  0  0  0  0  0  0  0  0  0  0
   -1.3185   -0.0001   -1.4845 H   0  0  0  0  0  0  0  0  0  0  0  0
   -2.4807   -0.0001   -0.1548 H   0  0  0  0  0  0  0  0  0  0  0  0
   -0.7193   -2.0966   -0.4837 H   0  0  0  0  0  0  0  0  0  0  0  0
   -1.1016   -1.5306    1.1514 H   0  0  0  0  0  0  0  0  0  0  0  0
    1.2672   -0.0000   -0.7058 O   0  0  0  0  0  0  0  0  0  0  0  0
    1.4554   -1.3242    0.9702 H   0  0  0  0  0  0  0  0  0  0  0  0
    1.4554    1.3245    0.9700 H   0  0  0  0  0  0  0  0  0  0  0  0
  1 13  1  1  0  0  0
  2  1  1  0  0  0  0
  2 14  1  1  0  0  0
  3  2  1  0  0  0  0
  3  6  1  0  0  0  0
  4  9  1  0  0  0  0
  4  3  1  0  0  0  0
  4  7  1  0  0  0  0
  5  3  1  0  0  0  0
  7  1  1  0  0  0  0
  7 11  1  0  0  0  0
  8  4  1  0  0  0  0
 10  7  1  0  0  0  0
 12  2  1  0  0  0  0
 12  1  1  0  0  0  0
M  END
$$$$
