Compound 045, distorted structure 03
 OpenBabel12112416303D

 14 15  0  0  1  0  0  0  0  0999 V2000
    0.7739   -0.7361    0.4159 C   0  0  1  0  0  0  0  0  0  0  0  0
    0.7556    0.7761    0.4539 C   0  0  2  0  0  0  0  0  0  0  0  0
   -0.6571    1.2323    0.1413 C   0  0  0  0  0  0  0  0  0  0  0  0
   -1.4609    0.0280   -0.3993 C   0  0  0  0  0  0  0  0  0  0  0  0
   -0.7052    2.0667   -0.5008 H   0  0  0  0  0  0  0  0  0  0  0  0
   -1.0893    1.5661    1.1380 H   0  0  0  0  0  0  0  0  0  0  0  0
   -0.7035   -1.2197    0.1649 C   0  0  0  0  0  0  0  0  0  0  0  0
   -1.3514   -0.0386   -1.4467 H   0  0  0  0  0  0  0  0  0  0  0  0
   -2.4478   -0.0131   -0.1155 H   0  0  0  0  0  0  0  0  0  0  0  0
   -0.7440   -2.1093   -0.4969 H   0  0  0  0  0  0  0  0  0  0  0  0
   -1.1433   -1.5575    1.1353 H   0  0  0  0  0  0  0  0  0  0  0  0
    1.2561   -0.0343   -0.7069 O   0  0  0  0  0  0  0  0  0  0  0  0
    1.4886   -1.3002    0.9843 H   0  0  0  0  0  0  0  0  0  0  0  0
    1.4849    1.3194    0.9534 H   0  0  0  0  0  0  0  0  0  0  0  0
  1  2  1  0  0  0  0
  1 13  1  1  0  0  0
  2 14  1  1  0  0  0
  3  2  1  0  0  0  0
  3  6  1  0  0  0  0
  4  9  1  0  0  0  0
  4  3  1  0  0  0  0
  4  7  1  0  0  0  0
  5  3  1  0  0  0  0
  7  1  1  0  0  0  0
  7 11  1  0  0  0  0
  8  4  1  0  0  0  0
 10  7  1  0  0  0  0
 12  1  1  0  0  0  0
 12  2  1  0  0  0  0
M  END
$$$$
