Compound 045, distorted structure 06
 OpenBabel12102416393D

 14 15  0  0  1  0  0  0  0  0999 V2000
    0.7554   -0.7061    0.4387 C   0  0  1  0  0  0  0  0  0  0  0  0
    0.6798    0.6899    0.3622 C   0  0  2  0  0  0  0  0  0  0  0  0
   -0.6683    1.2546    0.1396 C   0  0  0  0  0  0  0  0  0  0  0  0
   -1.4538    0.0209   -0.4327 C   0  0  0  0  0  0  0  0  0  0  0  0
   -0.6688    2.0634   -0.4739 H   0  0  0  0  0  0  0  0  0  0  0  0
   -1.1332    1.5947    1.1489 H   0  0  0  0  0  0  0  0  0  0  0  0
   -0.7516   -1.3021    0.1879 C   0  0  0  0  0  0  0  0  0  0  0  0
   -1.3351    0.0085   -1.5189 H   0  0  0  0  0  0  0  0  0  0  0  0
   -2.5548   -0.0497   -0.1539 H   0  0  0  0  0  0  0  0  0  0  0  0
   -0.7460   -2.1452   -0.5215 H   0  0  0  0  0  0  0  0  0  0  0  0
   -1.1300   -1.5716    1.2256 H   0  0  0  0  0  0  0  0  0  0  0  0
    1.3267    0.0153   -0.7244 O   0  0  0  0  0  0  0  0  0  0  0  0
    1.4570   -1.2612    0.9645 H   0  0  0  0  0  0  0  0  0  0  0  0
    1.5022    1.3823    0.9976 H   0  0  0  0  0  0  0  0  0  0  0  0
  1 13  1  1  0  0  0
  2  1  1  0  0  0  0
  2 14  1  1  0  0  0
  3  2  1  0  0  0  0
  3  6  1  0  0  0  0
  4  9  1  0  0  0  0
  4  3  1  0  0  0  0
  4  7  1  0  0  0  0
  5  3  1  0  0  0  0
  7  1  1  0  0  0  0
  7 11  1  0  0  0  0
  8  4  1  0  0  0  0
 10  7  1  0  0  0  0
 12  2  1  0  0  0  0
 12  1  1  0  0  0  0
M  END
$$$$
