Compound 047, distorted structure 06
 OpenBabel12102416393D

 14 14  0  0  1  0  0  0  0  0999 V2000
   -0.5263   -1.1952    0.1325 C   0  0  0  0  0  0  0  0  0  0  0  0
   -1.5259    0.0200    0.0431 C   0  0  0  0  0  0  0  0  0  0  0  0
   -0.4585    0.8567    0.2634 N   0  0  0  0  0  0  0  0  0  0  0  0
    0.6370   -0.1290    0.5232 C   0  0  2  0  0  0  0  0  0  0  0  0
   -0.3110   -1.7718   -0.7631 H   0  0  0  0  0  0  0  0  0  0  0  0
   -0.7726   -1.9302    0.8966 H   0  0  0  0  0  0  0  0  0  0  0  0
    0.9601   -0.1067    1.5518 H   0  0  0  0  0  0  0  0  0  0  0  0
    1.7690    0.0325   -0.5338 C   0  0  0  0  0  0  0  0  0  0  0  0
    2.9883    0.0203   -0.1499 C   0  0  0  0  0  0  0  0  0  0  0  0
   -2.6018    0.1414   -0.3261 O   0  0  0  0  0  0  0  0  0  0  0  0
   -0.5180    1.8668    0.3275 H   0  0  0  0  0  0  0  0  0  0  0  0
    1.4890    0.1275   -1.5387 H   0  0  0  0  0  0  0  0  0  0  0  0
    3.2734   -0.0611    0.9944 H   0  0  0  0  0  0  0  0  0  0  0  0
    3.7318    0.1866   -0.8096 H   0  0  0  0  0  0  0  0  0  0  0  0
  1  4  1  0  0  0  0
  1  6  1  0  0  0  0
  2  1  1  0  0  0  0
  2  3  1  0  0  0  0
  3 11  1  0  0  0  0
  3  4  1  0  0  0  0
  4  7  1  1  0  0  0
  5  1  1  0  0  0  0
  8  9  2  0  0  0  0
  8  4  1  0  0  0  0
  9 13  1  0  0  0  0
 10  2  2  0  0  0  0
 12  8  1  0  0  0  0
 14  9  1  0  0  0  0
M  END
$$$$
