Compound 050, distorted structure 03
 OpenBabel12102416393D

 15 15  0  0  0  0  0  0  0  0999 V2000
    1.1565    0.5386    0.0328 C   0  0  0  0  0  0  0  0  0  0  0  0
    0.2356    1.5279    0.0276 C   0  0  0  0  0  0  0  0  0  0  0  0
    2.6648    0.8830   -0.0140 C   0  0  0  0  0  0  0  0  0  0  0  0
    2.8691    1.9262   -0.0184 H   0  0  0  0  0  0  0  0  0  0  0  0
    3.0879    0.3764   -0.8817 H   0  0  0  0  0  0  0  0  0  0  0  0
    3.0919    0.4196    0.8942 H   0  0  0  0  0  0  0  0  0  0  0  0
    0.7210   -0.8099   -0.0184 C   0  0  0  0  0  0  0  0  0  0  0  0
   -0.6710   -1.0039   -0.0096 N   0  0  0  0  0  0  0  0  0  0  0  0
   -1.6490   -0.0639   -0.0191 C   0  0  0  0  0  0  0  0  0  0  0  0
   -1.1241    1.2497   -0.0297 N   0  0  0  0  0  0  0  0  0  0  0  0
    0.4482    2.5739    0.0103 H   0  0  0  0  0  0  0  0  0  0  0  0
   -0.9375   -1.9726    0.0265 H   0  0  0  0  0  0  0  0  0  0  0  0
   -1.8334    1.9865   -0.0288 H   0  0  0  0  0  0  0  0  0  0  0  0
    1.5310   -1.7751   -0.0239 O   0  0  0  0  0  0  0  0  0  0  0  0
   -2.8199   -0.2722   -0.0351 O   0  0  0  0  0  0  0  0  0  0  0  0
  2  1  2  0  0  0  0
  3  1  1  0  0  0  0
  3  6  1  0  0  0  0
  4  3  1  0  0  0  0
  5  3  1  0  0  0  0
  7  8  1  0  0  0  0
  7  1  1  0  0  0  0
  8 12  1  0  0  0  0
  9  8  1  0  0  0  0
 10 13  1  0  0  0  0
 10  9  1  0  0  0  0
 10  2  1  0  0  0  0
 11  2  1  0  0  0  0
 14  7  2  0  0  0  0
 15  9  2  0  0  0  0
M  END
$$$$
