Compound 051, distorted structure 03
 OpenBabel12112416303D

 16 15  0  0  0  0  0  0  0  0999 V2000
   -0.0702    0.5617   -0.4643 C   0  0  0  0  0  0  0  0  0  0  0  0
    1.0569    0.3915    0.4467 O   0  0  0  0  0  0  0  0  0  0  0  0
    2.0476   -0.4905   -0.0432 C   0  0  0  0  0  0  0  0  0  0  0  0
    2.4692   -0.1860   -0.9631 H   0  0  0  0  0  0  0  0  0  0  0  0
    1.6342   -1.5640   -0.1694 H   0  0  0  0  0  0  0  0  0  0  0  0
    2.8517   -0.5043    0.7095 H   0  0  0  0  0  0  0  0  0  0  0  0
   -0.7116   -0.6328   -0.6440 O   0  0  0  0  0  0  0  0  0  0  0  0
    0.3085    0.8231   -1.4257 H   0  0  0  0  0  0  0  0  0  0  0  0
   -0.8855    1.6594    0.1230 C   0  0  0  0  0  0  0  0  0  0  0  0
   -1.4121   -1.2205    0.4515 C   0  0  0  0  0  0  0  0  0  0  0  0
   -2.2541   -0.6913    0.7527 H   0  0  0  0  0  0  0  0  0  0  0  0
   -0.6719   -1.2886    1.2985 H   0  0  0  0  0  0  0  0  0  0  0  0
   -1.6997   -2.2346    0.1937 H   0  0  0  0  0  0  0  0  0  0  0  0
   -0.3583    2.5590    0.1542 H   0  0  0  0  0  0  0  0  0  0  0  0
   -1.1901    1.4427    1.1514 H   0  0  0  0  0  0  0  0  0  0  0  0
   -1.7879    1.7647   -0.4459 H   0  0  0  0  0  0  0  0  0  0  0  0
  1  9  1  0  0  0  0
  1  2  1  0  0  0  0
  3  2  1  0  0  0  0
  3  6  1  0  0  0  0
  4  3  1  0  0  0  0
  5  3  1  0  0  0  0
  7  1  1  0  0  0  0
  7 10  1  0  0  0  0
  8  1  1  0  0  0  0
  9 14  1  0  0  0  0
  9 15  1  0  0  0  0
 10 11  1  0  0  0  0
 10 12  1  0  0  0  0
 13 10  1  0  0  0  0
 16  9  1  0  0  0  0
M  END
$$$$
