Compound 052, distorted structure 04
 OpenBabel12102416393D

 16 16  0  0  0  0  0  0  0  0999 V2000
   -0.4000   -1.3434    0.0065 C   0  0  0  0  0  0  0  0  0  0  0  0
   -1.7893   -0.9719   -0.0074 C   0  0  0  0  0  0  0  0  0  0  0  0
   -2.2158    0.3568   -0.0212 C   0  0  0  0  0  0  0  0  0  0  0  0
   -1.2952    1.3864    0.0310 C   0  0  0  0  0  0  0  0  0  0  0  0
    0.0041    1.0947   -0.0520 C   0  0  0  0  0  0  0  0  0  0  0  0
    0.4516   -0.2441   -0.0104 C   0  0  0  0  0  0  0  0  0  0  0  0
    1.8356   -0.5906   -0.0206 O   0  0  0  0  0  0  0  0  0  0  0  0
    2.7148    0.4215    0.0241 C   0  0  0  0  0  0  0  0  0  0  0  0
    2.6525    1.0305    0.9411 H   0  0  0  0  0  0  0  0  0  0  0  0
    2.6680    0.9986   -0.9528 H   0  0  0  0  0  0  0  0  0  0  0  0
    3.7297   -0.0926   -0.0476 H   0  0  0  0  0  0  0  0  0  0  0  0
   -0.0405   -2.3345   -0.0571 H   0  0  0  0  0  0  0  0  0  0  0  0
   -2.5470   -1.8433    0.0570 H   0  0  0  0  0  0  0  0  0  0  0  0
   -3.2888    0.5443   -0.0578 H   0  0  0  0  0  0  0  0  0  0  0  0
   -1.6706    2.3897   -0.0532 H   0  0  0  0  0  0  0  0  0  0  0  0
    0.7187    1.8711    0.0062 H   0  0  0  0  0  0  0  0  0  0  0  0
  2  1  1  0  0  0  0
  2 13  1  0  0  0  0
  3  2  2  0  0  0  0
  3  4  1  0  0  0  0
  5  6  1  0  0  0  0
  5 16  1  0  0  0  0
  5  4  2  0  0  0  0
  6  1  2  0  0  0  0
  7  6  1  0  0  0  0
  7  8  1  0  0  0  0
  8  9  1  0  0  0  0
 10  8  1  0  0  0  0
 11  8  1  0  0  0  0
 12  1  1  0  0  0  0
 14  3  1  0  0  0  0
 15  4  1  0  0  0  0
M  END
$$$$
