Compound 053, distorted structure 06
 OpenBabel11072411453D

 16 15  0  0  1  0  0  0  0  0999 V2000
    0.7340   -1.9332    0.0585 C   0  0  0  0  0  0  0  0  0  0  0  0
    0.5756   -0.4977    0.6923 C   0  0  2  0  0  0  0  0  0  0  0  0
   -0.7634    0.0441    0.4476 C   0  0  1  0  0  0  0  0  0  0  0  0
    1.5929    0.3678    0.2546 O   0  0  0  0  0  0  0  0  0  0  0  0
    0.7787   -0.6145    1.7333 H   0  0  0  0  0  0  0  0  0  0  0  0
   -0.8223    1.4510    0.9442 C   0  0  0  0  0  0  0  0  0  0  0  0
   -1.4396   -0.5315    1.0798 H   0  0  0  0  0  0  0  0  0  0  0  0
   -1.2185    0.0227   -0.8455 O   0  0  0  0  0  0  0  0  0  0  0  0
    0.9591   -1.7952   -1.3327 O   0  0  0  0  0  0  0  0  0  0  0  0
   -0.0584   -2.5293    0.2369 H   0  0  0  0  0  0  0  0  0  0  0  0
    1.6273   -2.3419    0.3337 H   0  0  0  0  0  0  0  0  0  0  0  0
    0.0649   -1.4065   -1.6902 H   0  0  0  0  0  0  0  0  0  0  0  0
   -1.2021    2.3807    0.2268 O   0  0  0  0  0  0  0  0  0  0  0  0
   -0.4286    1.6354    2.0263 H   0  0  0  0  0  0  0  0  0  0  0  0
   -1.3510    0.9489   -1.0876 H   0  0  0  0  0  0  0  0  0  0  0  0
    1.7244    0.0853   -0.7748 H   0  0  0  0  0  0  0  0  0  0  0  0
  1 10  1  0  0  0  0
  1 11  1  0  0  0  0
  1  2  1  0  0  0  0
  2  5  1  1  0  0  0
  3  2  1  0  0  0  0
  3  6  1  0  0  0  0
  3  7  1  1  0  0  0
  4  2  1  0  0  0  0
  6 14  1  0  0  0  0
  8  3  1  0  0  0  0
  9  1  1  0  0  0  0
 12  9  1  0  0  0  0
 13  6  2  0  0  0  0
 15  8  1  0  0  0  0
 16  4  1  0  0  0  0
M  END
$$$$
