Compound 053, distorted structure 04
 OpenBabel12102416393D

 16 15  0  0  1  0  0  0  0  0999 V2000
    0.7271   -1.9347    0.0477 C   0  0  0  0  0  0  0  0  0  0  0  0
    0.6480   -0.5201    0.7180 C   0  0  2  0  0  0  0  0  0  0  0  0
   -0.7978    0.0929    0.4989 C   0  0  1  0  0  0  0  0  0  0  0  0
    1.6049    0.3882    0.2038 O   0  0  0  0  0  0  0  0  0  0  0  0
    0.7397   -0.6272    1.7576 H   0  0  0  0  0  0  0  0  0  0  0  0
   -0.8489    1.4872    0.9687 C   0  0  0  0  0  0  0  0  0  0  0  0
   -1.4722   -0.5202    1.1079 H   0  0  0  0  0  0  0  0  0  0  0  0
   -1.2380    0.0322   -0.8394 O   0  0  0  0  0  0  0  0  0  0  0  0
    0.8736   -1.7819   -1.3905 O   0  0  0  0  0  0  0  0  0  0  0  0
   -0.1279   -2.5794    0.2734 H   0  0  0  0  0  0  0  0  0  0  0  0
    1.6932   -2.3940    0.3626 H   0  0  0  0  0  0  0  0  0  0  0  0
    0.1337   -1.3625   -1.7483 H   0  0  0  0  0  0  0  0  0  0  0  0
   -1.1659    2.3887    0.3093 O   0  0  0  0  0  0  0  0  0  0  0  0
   -0.4838    1.6458    2.0107 H   0  0  0  0  0  0  0  0  0  0  0  0
   -1.3604    0.9263   -1.1097 H   0  0  0  0  0  0  0  0  0  0  0  0
    1.7557    0.1397   -0.7269 H   0  0  0  0  0  0  0  0  0  0  0  0
  1 10  1  0  0  0  0
  1 11  1  0  0  0  0
  1  2  1  0  0  0  0
  2  5  1  1  0  0  0
  3  2  1  0  0  0  0
  3  6  1  0  0  0  0
  3  7  1  1  0  0  0
  4  2  1  0  0  0  0
  6 14  1  0  0  0  0
  8  3  1  0  0  0  0
  9  1  1  0  0  0  0
 12  9  1  0  0  0  0
 13  6  2  0  0  0  0
 15  8  1  0  0  0  0
 16  4  1  0  0  0  0
M  END
$$$$
