Compound 054, distorted structure 01
 OpenBabel12112416303D

 16 15  0  0  1  0  0  0  0  0999 V2000
    1.1196   -1.2026    0.4915 C   0  0  0  0  0  0  0  0  0  0  0  0
   -0.2412   -0.5935    0.1397 C   0  0  0  0  0  0  0  0  0  0  0  0
   -0.5568    0.8060    0.6012 C   0  0  1  0  0  0  0  0  0  0  0  0
    0.5449    1.8149    0.3190 C   0  0  0  0  0  0  0  0  0  0  0  0
   -0.6977    0.7319    1.7177 H   0  0  0  0  0  0  0  0  0  0  0  0
   -1.7629    1.2423   -0.0003 O   0  0  0  0  0  0  0  0  0  0  0  0
    1.1785   -2.5613    0.1857 O   0  0  0  0  0  0  0  0  0  0  0  0
    1.3324   -1.0287    1.5506 H   0  0  0  0  0  0  0  0  0  0  0  0
    1.8699   -0.6304   -0.0980 H   0  0  0  0  0  0  0  0  0  0  0  0
    0.4020   -2.7704   -0.3739 H   0  0  0  0  0  0  0  0  0  0  0  0
   -2.1566    0.4815   -0.3991 H   0  0  0  0  0  0  0  0  0  0  0  0
   -1.0433   -1.2288   -0.5089 O   0  0  0  0  0  0  0  0  0  0  0  0
    0.8342    1.8294   -1.0668 O   0  0  0  0  0  0  0  0  0  0  0  0
    1.4604    1.5477    0.8342 H   0  0  0  0  0  0  0  0  0  0  0  0
    0.2185    2.8014    0.6735 H   0  0  0  0  0  0  0  0  0  0  0  0
    0.0085    2.0087   -1.5402 H   0  0  0  0  0  0  0  0  0  0  0  0
  1  8  1  0  0  0  0
  2  1  1  0  0  0  0
  2  3  1  0  0  0  0
  3  5  1  1  0  0  0
  4  3  1  0  0  0  0
  4 15  1  0  0  0  0
  4 14  1  0  0  0  0
  6  3  1  0  0  0  0
  7  1  1  0  0  0  0
  9  1  1  0  0  0  0
 10  7  1  0  0  0  0
 11  6  1  0  0  0  0
 12  2  2  0  0  0  0
 13  4  1  0  0  0  0
 16 13  1  0  0  0  0
M  END
$$$$
