Compound 054, distorted structure 02
 OpenBabel12112416303D

 16 15  0  0  1  0  0  0  0  0999 V2000
    1.0942   -1.2197    0.4687 C   0  0  0  0  0  0  0  0  0  0  0  0
   -0.2343   -0.6167    0.1424 C   0  0  0  0  0  0  0  0  0  0  0  0
   -0.5716    0.8005    0.6034 C   0  0  1  0  0  0  0  0  0  0  0  0
    0.5385    1.8122    0.2922 C   0  0  0  0  0  0  0  0  0  0  0  0
   -0.7047    0.7518    1.7190 H   0  0  0  0  0  0  0  0  0  0  0  0
   -1.7650    1.2344    0.0211 O   0  0  0  0  0  0  0  0  0  0  0  0
    1.1727   -2.5775    0.1643 O   0  0  0  0  0  0  0  0  0  0  0  0
    1.3075   -1.0600    1.5346 H   0  0  0  0  0  0  0  0  0  0  0  0
    1.8576   -0.6105   -0.0890 H   0  0  0  0  0  0  0  0  0  0  0  0
    0.4130   -2.7596   -0.3718 H   0  0  0  0  0  0  0  0  0  0  0  0
   -2.1764    0.4602   -0.3903 H   0  0  0  0  0  0  0  0  0  0  0  0
   -1.0325   -1.2185   -0.5255 O   0  0  0  0  0  0  0  0  0  0  0  0
    0.8218    1.8033   -1.0909 O   0  0  0  0  0  0  0  0  0  0  0  0
    1.4373    1.5415    0.8393 H   0  0  0  0  0  0  0  0  0  0  0  0
    0.2095    2.8106    0.6647 H   0  0  0  0  0  0  0  0  0  0  0  0
    0.0348    2.0156   -1.5203 H   0  0  0  0  0  0  0  0  0  0  0  0
  1  8  1  0  0  0  0
  2  1  1  0  0  0  0
  2  3  1  0  0  0  0
  3  5  1  1  0  0  0
  4  3  1  0  0  0  0
  4 15  1  0  0  0  0
  4 14  1  0  0  0  0
  6  3  1  0  0  0  0
  7  1  1  0  0  0  0
  9  1  1  0  0  0  0
 10  7  1  0  0  0  0
 11  6  1  0  0  0  0
 12  2  2  0  0  0  0
 13  4  1  0  0  0  0
 16 13  1  0  0  0  0
M  END
$$$$
