Compound 054 optimized with r2SCAN-3c
 OpenBabel12112416303D

 16 15  0  0  1  0  0  0  0  0999 V2000
    1.1103   -1.2018    0.4783 C   0  0  0  0  0  0  0  0  0  0  0  0
   -0.2294   -0.6038    0.1330 C   0  0  0  0  0  0  0  0  0  0  0  0
   -0.5714    0.7978    0.6156 C   0  0  1  0  0  0  0  0  0  0  0  0
    0.5359    1.8025    0.3078 C   0  0  0  0  0  0  0  0  0  0  0  0
   -0.6951    0.7328    1.7151 H   0  0  0  0  0  0  0  0  0  0  0  0
   -1.7619    1.2487    0.0029 O   0  0  0  0  0  0  0  0  0  0  0  0
    1.1774   -2.5706    0.1744 O   0  0  0  0  0  0  0  0  0  0  0  0
    1.3222   -1.0427    1.5471 H   0  0  0  0  0  0  0  0  0  0  0  0
    1.8640   -0.6240   -0.0887 H   0  0  0  0  0  0  0  0  0  0  0  0
    0.4050   -2.7648   -0.3798 H   0  0  0  0  0  0  0  0  0  0  0  0
   -2.1685    0.4680   -0.4090 H   0  0  0  0  0  0  0  0  0  0  0  0
   -1.0382   -1.2376   -0.5229 O   0  0  0  0  0  0  0  0  0  0  0  0
    0.8415    1.8156   -1.0778 O   0  0  0  0  0  0  0  0  0  0  0  0
    1.4577    1.5405    0.8391 H   0  0  0  0  0  0  0  0  0  0  0  0
    0.2091    2.7919    0.6623 H   0  0  0  0  0  0  0  0  0  0  0  0
    0.0152    2.0106   -1.5395 H   0  0  0  0  0  0  0  0  0  0  0  0
  1  8  1  0  0  0  0
  2  1  1  0  0  0  0
  2  3  1  0  0  0  0
  3  5  1  1  0  0  0
  4  3  1  0  0  0  0
  4 15  1  0  0  0  0
  4 14  1  0  0  0  0
  6  3  1  0  0  0  0
  7  1  1  0  0  0  0
  9  1  1  0  0  0  0
 10  7  1  0  0  0  0
 11  6  1  0  0  0  0
 12  2  2  0  0  0  0
 13  4  1  0  0  0  0
 16 13  1  0  0  0  0
M  END
$$$$
