Compound 055, distorted structure 01
 OpenBabel12112416303D

 17 17  0  0  1  0  0  0  0  0999 V2000
   -0.0554    0.2021    0.7670 C   0  0  2  0  0  0  0  0  0  0  0  0
   -1.3843   -0.0422    0.0166 C   0  0  0  0  0  0  0  0  0  0  0  0
    0.7376    1.3681    0.1387 C   0  0  0  0  0  0  0  0  0  0  0  0
    1.6555    0.6589   -0.8449 C   0  0  0  0  0  0  0  0  0  0  0  0
    1.3326    1.8688    0.9141 H   0  0  0  0  0  0  0  0  0  0  0  0
    0.0492    2.0984   -0.3222 H   0  0  0  0  0  0  0  0  0  0  0  0
    2.0724   -0.5740   -0.1006 C   0  0  0  0  0  0  0  0  0  0  0  0
    2.5125    1.2696   -1.1530 H   0  0  0  0  0  0  0  0  0  0  0  0
    1.0802    0.3720   -1.7454 H   0  0  0  0  0  0  0  0  0  0  0  0
    0.8318   -0.9894    0.6289 N   0  0  0  0  0  0  0  0  0  0  0  0
   -0.3141    0.4060    1.8103 H   0  0  0  0  0  0  0  0  0  0  0  0
    2.8805   -0.3177    0.6336 H   0  0  0  0  0  0  0  0  0  0  0  0
    2.4283   -1.3780   -0.7255 H   0  0  0  0  0  0  0  0  0  0  0  0
   -2.2393    0.8164   -0.0230 O   0  0  0  0  0  0  0  0  0  0  0  0
   -1.4758   -1.2297   -0.5576 O   0  0  0  0  0  0  0  0  0  0  0  0
   -0.6108   -1.6716   -0.3445 H   0  0  0  0  0  0  0  0  0  0  0  0
    1.0187   -1.4269    1.5011 H   0  0  0  0  0  0  0  0  0  0  0  0
  1 11  1  1  0  0  0
  2  1  1  0  0  0  0
  3  1  1  0  0  0  0
  3  5  1  0  0  0  0
  4  7  1  0  0  0  0
  4  3  1  0  0  0  0
  6  3  1  0  0  0  0
  7 10  1  0  0  0  0
  7 12  1  0  0  0  0
  8  4  1  0  0  0  0
  9  4  1  0  0  0  0
 10  1  1  0  0  0  0
 10 17  1  0  0  0  0
 13  7  1  0  0  0  0
 14  2  2  0  0  0  0
 15 16  1  0  0  0  0
 15  2  1  0  0  0  0
M  END
$$$$
