Compound 055, distorted structure 02
 OpenBabel12102416393D

 17 17  0  0  1  0  0  0  0  0999 V2000
   -0.0567    0.1890    0.7814 C   0  0  2  0  0  0  0  0  0  0  0  0
   -1.3880   -0.0506   -0.0007 C   0  0  0  0  0  0  0  0  0  0  0  0
    0.7303    1.3708    0.1491 C   0  0  0  0  0  0  0  0  0  0  0  0
    1.6595    0.6608   -0.8709 C   0  0  0  0  0  0  0  0  0  0  0  0
    1.3194    1.8842    0.8936 H   0  0  0  0  0  0  0  0  0  0  0  0
    0.0390    2.1216   -0.3183 H   0  0  0  0  0  0  0  0  0  0  0  0
    2.0928   -0.6000   -0.0821 C   0  0  0  0  0  0  0  0  0  0  0  0
    2.5121    1.2916   -1.1752 H   0  0  0  0  0  0  0  0  0  0  0  0
    1.0915    0.3630   -1.7770 H   0  0  0  0  0  0  0  0  0  0  0  0
    0.8543   -1.0076    0.6027 N   0  0  0  0  0  0  0  0  0  0  0  0
   -0.3192    0.3822    1.7998 H   0  0  0  0  0  0  0  0  0  0  0  0
    2.8916   -0.3426    0.6333 H   0  0  0  0  0  0  0  0  0  0  0  0
    2.4199   -1.3698   -0.7200 H   0  0  0  0  0  0  0  0  0  0  0  0
   -2.2222    0.7824   -0.0340 O   0  0  0  0  0  0  0  0  0  0  0  0
   -1.4570   -1.2358   -0.5475 O   0  0  0  0  0  0  0  0  0  0  0  0
   -0.5818   -1.6489   -0.3238 H   0  0  0  0  0  0  0  0  0  0  0  0
    1.0256   -1.4420    1.5087 H   0  0  0  0  0  0  0  0  0  0  0  0
  1 11  1  1  0  0  0
  2  1  1  0  0  0  0
  3  1  1  0  0  0  0
  3  5  1  0  0  0  0
  4  7  1  0  0  0  0
  4  3  1  0  0  0  0
  6  3  1  0  0  0  0
  7 10  1  0  0  0  0
  7 12  1  0  0  0  0
  8  4  1  0  0  0  0
  9  4  1  0  0  0  0
 10  1  1  0  0  0  0
 10 17  1  0  0  0  0
 13  7  1  0  0  0  0
 14  2  2  0  0  0  0
 15 16  1  0  0  0  0
 15  2  1  0  0  0  0
M  END
$$$$
