Compound 055, distorted structure 07
 OpenBabel12112416303D

 17 17  0  0  1  0  0  0  0  0999 V2000
   -0.0706    0.2155    0.8172 C   0  0  2  0  0  0  0  0  0  0  0  0
   -1.3853   -0.0682    0.0271 C   0  0  0  0  0  0  0  0  0  0  0  0
    0.7200    1.3150    0.0854 C   0  0  0  0  0  0  0  0  0  0  0  0
    1.7062    0.7023   -0.8101 C   0  0  0  0  0  0  0  0  0  0  0  0
    1.3136    1.8249    0.9242 H   0  0  0  0  0  0  0  0  0  0  0  0
   -0.0005    2.1488   -0.3548 H   0  0  0  0  0  0  0  0  0  0  0  0
    2.0834   -0.6176   -0.1355 C   0  0  0  0  0  0  0  0  0  0  0  0
    2.5213    1.3067   -1.1693 H   0  0  0  0  0  0  0  0  0  0  0  0
    1.0348    0.3429   -1.7103 H   0  0  0  0  0  0  0  0  0  0  0  0
    0.8597   -1.0259    0.6024 N   0  0  0  0  0  0  0  0  0  0  0  0
   -0.3506    0.3963    1.7962 H   0  0  0  0  0  0  0  0  0  0  0  0
    2.8668   -0.3059    0.5620 H   0  0  0  0  0  0  0  0  0  0  0  0
    2.4019   -1.3549   -0.7062 H   0  0  0  0  0  0  0  0  0  0  0  0
   -2.2746    0.8029   -0.0215 O   0  0  0  0  0  0  0  0  0  0  0  0
   -1.5345   -1.2954   -0.6122 O   0  0  0  0  0  0  0  0  0  0  0  0
   -0.6636   -1.6523   -0.3641 H   0  0  0  0  0  0  0  0  0  0  0  0
    1.0206   -1.4355    1.5011 H   0  0  0  0  0  0  0  0  0  0  0  0
  1 11  1  1  0  0  0
  2  1  1  0  0  0  0
  3  1  1  0  0  0  0
  3  5  1  0  0  0  0
  4  7  1  0  0  0  0
  4  3  1  0  0  0  0
  6  3  1  0  0  0  0
  7 12  1  0  0  0  0
  7 10  1  0  0  0  0
  8  4  1  0  0  0  0
  9  4  1  0  0  0  0
 10  1  1  0  0  0  0
 10 17  1  0  0  0  0
 13  7  1  0  0  0  0
 14  2  2  0  0  0  0
 15 16  1  0  0  0  0
 15  2  1  0  0  0  0
M  END
$$$$
