Compound 056, distorted structure 03
 OpenBabel12112416303D

 18 19  0  0  0  0  0  0  0  0999 V2000
   -1.7263    0.8671   -0.1702 C   0  0  0  0  0  0  0  0  0  0  0  0
   -2.0471   -0.5923    0.0009 C   0  0  0  0  0  0  0  0  0  0  0  0
   -0.6942   -1.1691   -0.0530 O   0  0  0  0  0  0  0  0  0  0  0  0
   -2.6351   -1.0199   -0.7578 H   0  0  0  0  0  0  0  0  0  0  0  0
   -2.4739   -0.8100    1.0318 H   0  0  0  0  0  0  0  0  0  0  0  0
    0.2545   -0.1542    0.0725 C   0  0  0  0  0  0  0  0  0  0  0  0
   -0.4969    0.9975    0.4692 O   0  0  0  0  0  0  0  0  0  0  0  0
   -2.4766    1.5350    0.3601 H   0  0  0  0  0  0  0  0  0  0  0  0
   -1.6845    1.1490   -1.2249 H   0  0  0  0  0  0  0  0  0  0  0  0
    1.2185    0.0666   -1.1260 C   0  0  0  0  0  0  0  0  0  0  0  0
    2.3024    0.2419   -0.1131 C   0  0  0  0  0  0  0  0  0  0  0  0
    0.9859    0.8546   -1.8219 H   0  0  0  0  0  0  0  0  0  0  0  0
    1.2988   -0.9074   -1.6866 H   0  0  0  0  0  0  0  0  0  0  0  0
    1.4582   -0.3966    0.9976 C   0  0  0  0  0  0  0  0  0  0  0  0
    2.4996    1.3516    0.1287 H   0  0  0  0  0  0  0  0  0  0  0  0
    3.2754   -0.2029   -0.3014 H   0  0  0  0  0  0  0  0  0  0  0  0
    1.4177    0.0453    1.9605 H   0  0  0  0  0  0  0  0  0  0  0  0
    1.6647   -1.4489    1.1064 H   0  0  0  0  0  0  0  0  0  0  0  0
  1  2  1  0  0  0  0
  1  8  1  0  0  0  0
  1  7  1  0  0  0  0
  2  5  1  0  0  0  0
  3  2  1  0  0  0  0
  3  6  1  0  0  0  0
  4  2  1  0  0  0  0
  6  7  1  0  0  0  0
  6 14  1  0  0  0  0
  9  1  1  0  0  0  0
 10 11  1  0  0  0  0
 10  6  1  0  0  0  0
 11 15  1  0  0  0  0
 11 14  1  0  0  0  0
 12 10  1  0  0  0  0
 13 10  1  0  0  0  0
 14 18  1  0  0  0  0
 14 17  1  0  0  0  0
 16 11  1  0  0  0  0
M  END
$$$$
