Compound 056, distorted structure 06
 OpenBabel12102416393D

 18 19  0  0  0  0  0  0  0  0999 V2000
   -1.7967    0.9254   -0.1203 C   0  0  0  0  0  0  0  0  0  0  0  0
   -2.0169   -0.5902    0.0361 C   0  0  0  0  0  0  0  0  0  0  0  0
   -0.7824   -1.2342   -0.1075 O   0  0  0  0  0  0  0  0  0  0  0  0
   -2.6304   -1.0773   -0.7974 H   0  0  0  0  0  0  0  0  0  0  0  0
   -2.5147   -0.8085    1.0017 H   0  0  0  0  0  0  0  0  0  0  0  0
    0.1874   -0.1830    0.0518 C   0  0  0  0  0  0  0  0  0  0  0  0
   -0.4994    1.0222    0.4229 O   0  0  0  0  0  0  0  0  0  0  0  0
   -2.5084    1.5859    0.3718 H   0  0  0  0  0  0  0  0  0  0  0  0
   -1.6479    1.1274   -1.2642 H   0  0  0  0  0  0  0  0  0  0  0  0
    1.2422    0.0377   -1.1450 C   0  0  0  0  0  0  0  0  0  0  0  0
    2.3670    0.3157   -0.1420 C   0  0  0  0  0  0  0  0  0  0  0  0
    0.9538    0.9017   -1.8141 H   0  0  0  0  0  0  0  0  0  0  0  0
    1.3439   -0.9476   -1.6389 H   0  0  0  0  0  0  0  0  0  0  0  0
    1.4800   -0.4409    0.9817 C   0  0  0  0  0  0  0  0  0  0  0  0
    2.5268    1.3347    0.1053 H   0  0  0  0  0  0  0  0  0  0  0  0
    3.2430   -0.1610   -0.3515 H   0  0  0  0  0  0  0  0  0  0  0  0
    1.4146    0.0544    1.9609 H   0  0  0  0  0  0  0  0  0  0  0  0
    1.5825   -1.4252    1.0753 H   0  0  0  0  0  0  0  0  0  0  0  0
  1  2  1  0  0  0  0
  1  8  1  0  0  0  0
  1  7  1  0  0  0  0
  2  5  1  0  0  0  0
  3  2  1  0  0  0  0
  3  6  1  0  0  0  0
  4  2  1  0  0  0  0
  6  7  1  0  0  0  0
  6 14  1  0  0  0  0
  9  1  1  0  0  0  0
 10 11  1  0  0  0  0
 10  6  1  0  0  0  0
 11 15  1  0  0  0  0
 11 14  1  0  0  0  0
 12 10  1  0  0  0  0
 13 10  1  0  0  0  0
 14 18  1  0  0  0  0
 14 17  1  0  0  0  0
 16 11  1  0  0  0  0
M  END
$$$$
