Compound 056, distorted structure 08
 OpenBabel12102416393D

 18 19  0  0  0  0  0  0  0  0999 V2000
   -1.7596    0.8053   -0.1557 C   0  0  0  0  0  0  0  0  0  0  0  0
   -2.0546   -0.6586    0.0432 C   0  0  0  0  0  0  0  0  0  0  0  0
   -0.7015   -1.1959    0.0383 O   0  0  0  0  0  0  0  0  0  0  0  0
   -2.6308   -1.0483   -0.7178 H   0  0  0  0  0  0  0  0  0  0  0  0
   -2.4888   -0.8589    0.9798 H   0  0  0  0  0  0  0  0  0  0  0  0
    0.2683   -0.2253    0.0695 C   0  0  0  0  0  0  0  0  0  0  0  0
   -0.5492    0.9550    0.5235 O   0  0  0  0  0  0  0  0  0  0  0  0
   -2.3907    1.5530    0.3492 H   0  0  0  0  0  0  0  0  0  0  0  0
   -1.6635    1.1574   -1.1751 H   0  0  0  0  0  0  0  0  0  0  0  0
    1.1424   -0.0196   -1.1574 C   0  0  0  0  0  0  0  0  0  0  0  0
    2.3435    0.3149   -0.0514 C   0  0  0  0  0  0  0  0  0  0  0  0
    1.0017    0.9334   -1.8908 H   0  0  0  0  0  0  0  0  0  0  0  0
    1.3954   -0.8201   -1.6514 H   0  0  0  0  0  0  0  0  0  0  0  0
    1.5190   -0.3480    1.0824 C   0  0  0  0  0  0  0  0  0  0  0  0
    2.5687    1.3604    0.1599 H   0  0  0  0  0  0  0  0  0  0  0  0
    3.3680   -0.2524   -0.2391 H   0  0  0  0  0  0  0  0  0  0  0  0
    1.3828    0.1047    2.0244 H   0  0  0  0  0  0  0  0  0  0  0  0
    1.6693   -1.4175    1.0461 H   0  0  0  0  0  0  0  0  0  0  0  0
  1  2  1  0  0  0  0
  1  8  1  0  0  0  0
  1  7  1  0  0  0  0
  2  5  1  0  0  0  0
  3  2  1  0  0  0  0
  3  6  1  0  0  0  0
  4  2  1  0  0  0  0
  6  7  1  0  0  0  0
  6 14  1  0  0  0  0
  9  1  1  0  0  0  0
 10 11  1  0  0  0  0
 10  6  1  0  0  0  0
 11 15  1  0  0  0  0
 11 14  1  0  0  0  0
 12 10  1  0  0  0  0
 13 10  1  0  0  0  0
 14 17  1  0  0  0  0
 16 11  1  0  0  0  0
 18 14  1  0  0  0  0
M  END
$$$$
