Compound 056, distorted structure 01
 OpenBabel12112416303D

 18 19  0  0  0  0  0  0  0  0999 V2000
   -1.7602    0.8787   -0.1744 C   0  0  0  0  0  0  0  0  0  0  0  0
   -2.0481   -0.6166    0.0070 C   0  0  0  0  0  0  0  0  0  0  0  0
   -0.7245   -1.2132   -0.0500 O   0  0  0  0  0  0  0  0  0  0  0  0
   -2.6734   -1.0285   -0.7795 H   0  0  0  0  0  0  0  0  0  0  0  0
   -2.4905   -0.8133    1.0032 H   0  0  0  0  0  0  0  0  0  0  0  0
    0.2448   -0.1554    0.0706 C   0  0  0  0  0  0  0  0  0  0  0  0
   -0.4645    0.9953    0.4511 O   0  0  0  0  0  0  0  0  0  0  0  0
   -2.4365    1.5298    0.3423 H   0  0  0  0  0  0  0  0  0  0  0  0
   -1.7079    1.1229   -1.2300 H   0  0  0  0  0  0  0  0  0  0  0  0
    1.1836    0.0432   -1.1138 C   0  0  0  0  0  0  0  0  0  0  0  0
    2.3284    0.2592   -0.0914 C   0  0  0  0  0  0  0  0  0  0  0  0
    0.9633    0.8715   -1.7964 H   0  0  0  0  0  0  0  0  0  0  0  0
    1.3112   -0.8785   -1.6774 H   0  0  0  0  0  0  0  0  0  0  0  0
    1.4454   -0.3955    1.0089 C   0  0  0  0  0  0  0  0  0  0  0  0
    2.5020    1.3398    0.1045 H   0  0  0  0  0  0  0  0  0  0  0  0
    3.2869   -0.2119   -0.2927 H   0  0  0  0  0  0  0  0  0  0  0  0
    1.4002    0.0809    1.9905 H   0  0  0  0  0  0  0  0  0  0  0  0
    1.6315   -1.4793    1.0953 H   0  0  0  0  0  0  0  0  0  0  0  0
  1  2  1  0  0  0  0
  1  8  1  0  0  0  0
  1  7  1  0  0  0  0
  2  5  1  0  0  0  0
  3  2  1  0  0  0  0
  3  6  1  0  0  0  0
  4  2  1  0  0  0  0
  6  7  1  0  0  0  0
  6 14  1  0  0  0  0
  9  1  1  0  0  0  0
 10 11  1  0  0  0  0
 10  6  1  0  0  0  0
 11 15  1  0  0  0  0
 11 14  1  0  0  0  0
 12 10  1  0  0  0  0
 13 10  1  0  0  0  0
 14 18  1  0  0  0  0
 14 17  1  0  0  0  0
 16 11  1  0  0  0  0
M  END
$$$$
