Compound 057, distorted structure 05
 OpenBabel11072411443D

 19 19  0  0  0  0  0  0  0  0999 V2000
   -0.4446    1.4306   -0.3846 C   0  0  0  0  0  0  0  0  0  0  0  0
   -1.5792    0.6287    0.1370 C   0  0  0  0  0  0  0  0  0  0  0  0
   -1.3802   -0.9536   -0.0649 C   0  0  0  0  0  0  0  0  0  0  0  0
   -2.5492    0.8654   -0.4167 H   0  0  0  0  0  0  0  0  0  0  0  0
   -1.7229    0.7630    1.1882 H   0  0  0  0  0  0  0  0  0  0  0  0
   -0.0918   -1.4574    0.4268 C   0  0  0  0  0  0  0  0  0  0  0  0
   -1.5415   -1.1456   -1.1911 H   0  0  0  0  0  0  0  0  0  0  0  0
   -2.2185   -1.4975    0.3796 H   0  0  0  0  0  0  0  0  0  0  0  0
    0.9435   -0.9786   -0.4573 O   0  0  0  0  0  0  0  0  0  0  0  0
   -0.1174   -2.5474    0.4009 H   0  0  0  0  0  0  0  0  0  0  0  0
    0.0840   -1.1940    1.4952 H   0  0  0  0  0  0  0  0  0  0  0  0
    1.6722    0.1290   -0.0293 C   0  0  0  0  0  0  0  0  0  0  0  0
    0.8020    1.3037    0.4615 C   0  0  0  0  0  0  0  0  0  0  0  0
    2.2554    0.4433   -0.8790 H   0  0  0  0  0  0  0  0  0  0  0  0
    2.4215   -0.1603    0.8003 H   0  0  0  0  0  0  0  0  0  0  0  0
    1.4024    2.1860    0.3366 H   0  0  0  0  0  0  0  0  0  0  0  0
    0.5231    1.2638    1.4338 H   0  0  0  0  0  0  0  0  0  0  0  0
   -0.8389    2.5591   -0.4046 H   0  0  0  0  0  0  0  0  0  0  0  0
   -0.3049    1.2306   -1.4457 H   0  0  0  0  0  0  0  0  0  0  0  0
  1  2  1  0  0  0  0
  1 13  1  0  0  0  0
  2  5  1  0  0  0  0
  3  2  1  0  0  0  0
  3  8  1  0  0  0  0
  3  6  1  0  0  0  0
  4  2  1  0  0  0  0
  6 11  1  0  0  0  0
  7  3  1  0  0  0  0
  9 12  1  0  0  0  0
  9  6  1  0  0  0  0
 10  6  1  0  0  0  0
 12 13  1  0  0  0  0
 12 15  1  0  0  0  0
 13 17  1  0  0  0  0
 14 12  1  0  0  0  0
 16 13  1  0  0  0  0
 18  1  1  0  0  0  0
 19  1  1  0  0  0  0
M  END
$$$$
