Compound 059, distorted structure 06
 OpenBabel12112416303D

 11 10  0  0  0  0  0  0  0  0999 V2000
    2.6816    0.0514    0.2533 C   0  0  0  0  0  0  0  0  0  0  0  0
    1.5532   -0.0980   -0.4245 C   0  0  0  0  0  0  0  0  0  0  0  0
    0.3626    0.6564   -0.2903 C   0  0  0  0  0  0  0  0  0  0  0  0
   -0.8181   -0.1623   -0.0299 C   0  0  0  0  0  0  0  0  0  0  0  0
    0.2700    1.1313   -1.3127 H   0  0  0  0  0  0  0  0  0  0  0  0
    0.4734    1.4871    0.5106 H   0  0  0  0  0  0  0  0  0  0  0  0
    3.5765   -0.5435    0.2170 H   0  0  0  0  0  0  0  0  0  0  0  0
    2.6547    1.0168    0.9597 H   0  0  0  0  0  0  0  0  0  0  0  0
    1.5509   -0.9406   -0.9736 H   0  0  0  0  0  0  0  0  0  0  0  0
   -1.9689    0.6679    0.0954 F   0  0  0  0  0  0  0  0  0  0  0  0
   -1.0929   -1.3504    0.0392 O   0  0  0  0  0  0  0  0  0  0  0  0
  1  8  1  0  0  0  0
  2  3  1  0  0  0  0
  2  1  2  0  0  0  0
  3  4  1  0  0  0  0
  3  6  1  0  0  0  0
  4 11  2  0  0  0  0
  4 10  1  0  0  0  0
  5  3  1  0  0  0  0
  7  1  1  0  0  0  0
  9  2  1  0  0  0  0
M  END
$$$$
