Compound 060, distorted structure 04
 OpenBabel12102416393D

 12 12  0  0  0  0  0  0  0  0999 V2000
    1.9081   -0.0022   -0.0090 C   0  0  0  0  0  0  0  0  0  0  0  0
    1.1727   -1.1860    0.0142 C   0  0  0  0  0  0  0  0  0  0  0  0
   -0.1642   -1.1749   -0.0293 C   0  0  0  0  0  0  0  0  0  0  0  0
   -0.8995    0.0432   -0.0296 C   0  0  0  0  0  0  0  0  0  0  0  0
   -0.2159    1.2155    0.0537 C   0  0  0  0  0  0  0  0  0  0  0  0
    1.1863    1.2600    0.0355 C   0  0  0  0  0  0  0  0  0  0  0  0
   -2.2276    0.0285    0.0550 F   0  0  0  0  0  0  0  0  0  0  0  0
    2.9505    0.0198    0.0173 H   0  0  0  0  0  0  0  0  0  0  0  0
    1.7212   -2.1820    0.0485 H   0  0  0  0  0  0  0  0  0  0  0  0
   -0.7717   -2.1510   -0.0030 H   0  0  0  0  0  0  0  0  0  0  0  0
   -0.7342    2.1269    0.0527 H   0  0  0  0  0  0  0  0  0  0  0  0
    1.7733    2.0963    0.0394 H   0  0  0  0  0  0  0  0  0  0  0  0
  1  2  2  0  0  0  0
  1  8  1  0  0  0  0
  1  6  1  0  0  0  0
  2  9  1  0  0  0  0
  3 10  1  0  0  0  0
  3  2  1  0  0  0  0
  4  3  2  0  0  0  0
  4  5  1  0  0  0  0
  4  7  1  0  0  0  0
  6 12  1  0  0  0  0
  6  5  2  0  0  0  0
 11  5  1  0  0  0  0
M  END
$$$$
