Compound 061, distorted structure 09
 OpenBabel11072411453D

 12 11  0  0  0  0  0  0  0  0999 V2000
    0.5217    0.9943    0.0968 C   0  0  0  0  0  0  0  0  0  0  0  0
   -0.8679    0.4682    0.1756 C   0  0  0  0  0  0  0  0  0  0  0  0
   -1.9857    0.1115    0.5934 C   0  0  0  0  0  0  0  0  0  0  0  0
   -2.4316   -0.0043    1.4370 H   0  0  0  0  0  0  0  0  0  0  0  0
   -2.8596   -0.2422   -0.5262 F   0  0  0  0  0  0  0  0  0  0  0  0
    1.6077    0.0143    0.0336 C   0  0  0  0  0  0  0  0  0  0  0  0
    0.6645    1.9658   -0.1027 H   0  0  0  0  0  0  0  0  0  0  0  0
    1.4047   -1.5135    0.0816 C   0  0  0  0  0  0  0  0  0  0  0  0
    2.3165   -2.1083    0.0297 H   0  0  0  0  0  0  0  0  0  0  0  0
    0.6926   -1.9158   -0.6428 H   0  0  0  0  0  0  0  0  0  0  0  0
    0.7483   -1.6891    1.0806 H   0  0  0  0  0  0  0  0  0  0  0  0
    2.7429    0.4050   -0.1960 O   0  0  0  0  0  0  0  0  0  0  0  0
  1  2  2  0  0  0  0
  2  3  2  0  0  0  0
  3  4  1  0  0  0  0
  5  3  1  0  0  0  0
  6  8  1  0  0  0  0
  6  1  1  0  0  0  0
  7  1  1  0  0  0  0
  8 11  1  0  0  0  0
  9  8  1  0  0  0  0
 10  8  1  0  0  0  0
 12  6  2  0  0  0  0
M  END
$$$$
