Compound 063, distorted structure 08
 OpenBabel12102416393D

 20 12  0  0  0  0  0  0  0  0999 V2000
   -1.4763    0.8799   -1.1946 C   0  0  0  0  0  3  0  0  0  0  0  0
    0.5428    1.0761   -0.7926 *   0  0  0  0  0  0  0  0  0  0  0  0
   -1.0593    0.5598    0.9049 *   0  0  0  0  0  0  0  0  0  0  0  0
    0.7915    1.6107    1.2237 C   0  0  0  0  0  3  0  0  0  0  0  0
    1.6219   -0.8541   -1.2174 C   0  0  0  0  0  3  0  0  0  0  0  0
    1.0511   -0.5287    0.8690 *   0  0  0  0  0  0  0  0  0  0  0  0
   -0.5854   -1.0618   -0.9418 *   0  0  0  0  0  0  0  0  0  0  0  0
   -0.7747   -1.6450    1.1701 C   0  0  0  0  0  3  0  0  0  0  0  0
   -0.0667   -2.1449    1.8494 H   0  0  0  0  0  0  0  0  0  0  0  0
    0.0724    2.1184    1.8825 H   0  0  0  0  0  0  0  0  0  0  0  0
    1.2020   -1.5526   -1.9512 H   0  0  0  0  0  0  0  0  0  0  0  0
   -2.0548    0.1014   -1.9810 H   0  0  0  0  0  0  0  0  0  0  0  0
   -1.7083   -1.2204    1.9330 H   0  0  0  0  0  0  0  0  0  0  0  0
   -1.2966   -2.4466    0.7700 H   0  0  0  0  0  0  0  0  0  0  0  0
    2.5389   -1.1858   -0.6357 H   0  0  0  0  0  0  0  0  0  0  0  0
    2.1573   -0.0054   -1.9067 H   0  0  0  0  0  0  0  0  0  0  0  0
    1.1485    2.3662    0.7887 H   0  0  0  0  0  0  0  0  0  0  0  0
    1.5730    1.3280    1.8838 H   0  0  0  0  0  0  0  0  0  0  0  0
   -1.2184    1.5986   -1.8447 H   0  0  0  0  0  0  0  0  0  0  0  0
   -2.3588    1.3307   -0.6616 H   0  0  0  0  0  0  0  0  0  0  0  0
  1 20  1  0  0  0  0
  4 10  1  0  0  0  0
  4 18  1  0  0  0  0
  5 15  1  0  0  0  0
  8  9  1  0  0  0  0
  8 13  1  0  0  0  0
 11  5  1  0  0  0  0
 12  1  1  0  0  0  0
 14  8  1  0  0  0  0
 16  5  1  0  0  0  0
 17  4  1  0  0  0  0
 19  1  1  0  0  0  0
M  END
$$$$
