Compound 063 optimized with r2SCAN-3c
 OpenBabel12102416393D

 20 15  0  0  0  0  0  0  0  0999 V2000
   -1.5716    0.8124   -1.2534 C   0  0  0  0  0  0  0  0  0  0  0  0
    0.5499    1.0751   -0.8412 Li  0  0  0  0  0  0  0  0  0  0  0  0
   -1.0720    0.5435    0.8492 Li  0  0  0  0  0 15  0  0  0  0  0  0
    0.8034    1.5686    1.2631 C   0  0  0  0  0  0  0  0  0  0  0  0
    1.5801   -0.7994   -1.2508 C   0  0  0  0  0  0  0  0  0  0  0  0
    1.0667   -0.5537    0.8497 Li  0  0  0  0  0  0  0  0  0  0  0  0
   -0.5445   -1.0651   -0.8575 Li  0  0  0  0  0  0  0  0  0  0  0  0
   -0.8109   -1.5822    1.2409 C   0  0  0  0  0  3  0  0  0  0  0  0
   -0.0990   -2.0790    1.9289 H   0  0  0  0  0  0  0  0  0  0  0  0
    0.0856    2.0589    1.9495 H   0  0  0  0  0  0  0  0  0  0  0  0
    1.2917   -1.6134   -1.9443 H   0  0  0  0  0  0  0  0  0  0  0  0
   -2.0612    0.1020   -1.9472 H   0  0  0  0  0  0  0  0  0  0  0  0
   -1.6300   -1.2938    1.9277 H   0  0  0  0  0  0  0  0  0  0  0  0
   -1.2550   -2.4449    0.7067 H   0  0  0  0  0  0  0  0  0  0  0  0
    2.4441   -1.2460   -0.7207 H   0  0  0  0  0  0  0  0  0  0  0  0
    2.0762   -0.0809   -1.9317 H   0  0  0  0  0  0  0  0  0  0  0  0
    1.2473    2.4377    0.7393 H   0  0  0  0  0  0  0  0  0  0  0  0
    1.6179    1.2749    1.9530 H   0  0  0  0  0  0  0  0  0  0  0  0
   -1.2784    1.6334   -1.9366 H   0  0  0  0  0  0  0  0  0  0  0  0
   -2.4401    1.2520   -0.7251 H   0  0  0  0  0  0  0  0  0  0  0  0
  1  7  1  0  0  0  0
  1 20  1  0  0  0  0
  2  4  1  0  0  0  0
  4 10  1  0  0  0  0
  4 18  1  0  0  0  0
  5 15  1  0  0  0  0
  5  6  1  0  0  0  0
  8 13  1  0  0  0  0
  8  9  1  0  0  0  0
 11  5  1  0  0  0  0
 12  1  1  0  0  0  0
 14  8  1  0  0  0  0
 16  5  1  0  0  0  0
 17  4  1  0  0  0  0
 19  1  1  0  0  0  0
M  END
$$$$
