Compound 063, distorted structure 06
 OpenBabel12102416393D

 20 12  0  0  0  0  0  0  0  0999 V2000
   -1.5023    0.8278   -1.2386 C   0  0  0  0  0  3  0  0  0  0  0  0
    0.4580    1.0121   -0.7664 *   0  0  0  0  0  0  0  0  0  0  0  0
   -1.0213    0.4973    0.8868 *   0  0  0  0  0  0  0  0  0  0  0  0
    0.7943    1.5520    1.3154 C   0  0  0  0  0  3  0  0  0  0  0  0
    1.5598   -0.8131   -1.3256 C   0  0  0  0  0  3  0  0  0  0  0  0
    1.1010   -0.4960    0.8938 *   0  0  0  0  0  0  0  0  0  0  0  0
   -0.6201   -1.0058   -0.9222 *   0  0  0  0  0  0  0  0  0  0  0  0
   -0.8490   -1.5578    1.2250 C   0  0  0  0  0  3  0  0  0  0  0  0
   -0.1151   -2.0881    1.9500 H   0  0  0  0  0  0  0  0  0  0  0  0
    0.0120    1.9834    2.0093 H   0  0  0  0  0  0  0  0  0  0  0  0
    1.3333   -1.6986   -1.9566 H   0  0  0  0  0  0  0  0  0  0  0  0
   -2.0289    0.0871   -1.9706 H   0  0  0  0  0  0  0  0  0  0  0  0
   -1.6434   -1.3501    1.9530 H   0  0  0  0  0  0  0  0  0  0  0  0
   -1.3005   -2.5275    0.6302 H   0  0  0  0  0  0  0  0  0  0  0  0
    2.5230   -1.2005   -0.7395 H   0  0  0  0  0  0  0  0  0  0  0  0
    2.0243   -0.0018   -1.8525 H   0  0  0  0  0  0  0  0  0  0  0  0
    1.3118    2.5285    0.7999 H   0  0  0  0  0  0  0  0  0  0  0  0
    1.6703    1.2186    1.8738 H   0  0  0  0  0  0  0  0  0  0  0  0
   -1.1965    1.6275   -1.9446 H   0  0  0  0  0  0  0  0  0  0  0  0
   -2.3665    1.3223   -0.6680 H   0  0  0  0  0  0  0  0  0  0  0  0
  1 20  1  0  0  0  0
  4 18  1  0  0  0  0
  4 10  1  0  0  0  0
  5 15  1  0  0  0  0
  8  9  1  0  0  0  0
  8 13  1  0  0  0  0
 11  5  1  0  0  0  0
 12  1  1  0  0  0  0
 14  8  1  0  0  0  0
 16  5  1  0  0  0  0
 17  4  1  0  0  0  0
 19  1  1  0  0  0  0
M  END
$$$$
