Compound 064, distorted structure 03
 OpenBabel12102416393D

 19 18  0  0  0  0  0  0  0  0999 V2000
   -0.0399   -0.4947    0.0177 B   0  0  0  0  0  0  0  0  0  0  0  0
   -0.8263    0.8667    0.0057 C   0  0  0  0  0  0  0  0  0  0  0  0
    1.5455   -0.4926   -0.0400 C   0  0  0  0  0  0  0  0  0  0  0  0
   -0.7349   -1.8281    0.1262 C   0  0  0  0  0  0  0  0  0  0  0  0
   -2.2900    0.8360    0.0764 C   0  0  0  0  0  0  0  0  0  0  0  0
   -0.4392    1.4325   -0.8672 H   0  0  0  0  0  0  0  0  0  0  0  0
   -0.3774    1.4958    0.8369 H   0  0  0  0  0  0  0  0  0  0  0  0
   -2.7175    0.3090   -0.8142 H   0  0  0  0  0  0  0  0  0  0  0  0
   -2.7827    1.8608    0.0553 H   0  0  0  0  0  0  0  0  0  0  0  0
   -2.6431    0.2815    0.8905 H   0  0  0  0  0  0  0  0  0  0  0  0
    1.7796   -0.9773   -1.0334 H   0  0  0  0  0  0  0  0  0  0  0  0
    1.9280   -1.2365    0.7254 H   0  0  0  0  0  0  0  0  0  0  0  0
    2.3191    0.8130    0.0470 C   0  0  0  0  0  0  0  0  0  0  0  0
    2.0574    1.5238   -0.8040 H   0  0  0  0  0  0  0  0  0  0  0  0
    3.4379    0.7214   -0.0505 H   0  0  0  0  0  0  0  0  0  0  0  0
    2.1291    1.3387    0.9801 H   0  0  0  0  0  0  0  0  0  0  0  0
   -1.2416   -1.9084    1.0883 H   0  0  0  0  0  0  0  0  0  0  0  0
   -0.1340   -2.7336   -0.0768 H   0  0  0  0  0  0  0  0  0  0  0  0
   -1.6379   -1.8712   -0.6245 H   0  0  0  0  0  0  0  0  0  0  0  0
  1  4  1  0  0  0  0
  2  1  1  0  0  0  0
  2  5  1  0  0  0  0
  2  7  1  0  0  0  0
  3  1  1  0  0  0  0
  3 13  1  0  0  0  0
  3 12  1  0  0  0  0
  4 17  1  0  0  0  0
  5 10  1  0  0  0  0
  6  2  1  0  0  0  0
  8  5  1  0  0  0  0
  9  5  1  0  0  0  0
 11  3  1  0  0  0  0
 13 16  1  0  0  0  0
 14 13  1  0  0  0  0
 15 13  1  0  0  0  0
 18  4  1  0  0  0  0
 19  4  1  0  0  0  0
M  END
$$$$
