Compound 064, distorted structure 02
 OpenBabel12112416303D

 19 18  0  0  0  0  0  0  0  0999 V2000
   -0.0240   -0.4735    0.0231 B   0  0  0  0  0  0  0  0  0  0  0  0
   -0.7932    0.8720   -0.0158 C   0  0  0  0  0  0  0  0  0  0  0  0
    1.5772   -0.5036   -0.0630 C   0  0  0  0  0  0  0  0  0  0  0  0
   -0.7778   -1.8213    0.1152 C   0  0  0  0  0  0  0  0  0  0  0  0
   -2.3323    0.8526    0.0586 C   0  0  0  0  0  0  0  0  0  0  0  0
   -0.4325    1.4770   -0.8509 H   0  0  0  0  0  0  0  0  0  0  0  0
   -0.4188    1.5023    0.8619 H   0  0  0  0  0  0  0  0  0  0  0  0
   -2.7165    0.3365   -0.8542 H   0  0  0  0  0  0  0  0  0  0  0  0
   -2.7383    1.8397    0.0652 H   0  0  0  0  0  0  0  0  0  0  0  0
   -2.6867    0.2997    0.9173 H   0  0  0  0  0  0  0  0  0  0  0  0
    1.7922   -1.0148   -1.0083 H   0  0  0  0  0  0  0  0  0  0  0  0
    1.9118   -1.2238    0.6948 H   0  0  0  0  0  0  0  0  0  0  0  0
    2.3335    0.8384    0.0300 C   0  0  0  0  0  0  0  0  0  0  0  0
    2.0391    1.4952   -0.7550 H   0  0  0  0  0  0  0  0  0  0  0  0
    3.4071    0.6962   -0.0903 H   0  0  0  0  0  0  0  0  0  0  0  0
    2.1616    1.3290    0.9841 H   0  0  0  0  0  0  0  0  0  0  0  0
   -1.2320   -1.9099    1.0830 H   0  0  0  0  0  0  0  0  0  0  0  0
   -0.1372   -2.7316   -0.0766 H   0  0  0  0  0  0  0  0  0  0  0  0
   -1.6371   -1.9216   -0.6164 H   0  0  0  0  0  0  0  0  0  0  0  0
  1  4  1  0  0  0  0
  2  1  1  0  0  0  0
  2  5  1  0  0  0  0
  2  7  1  0  0  0  0
  3  1  1  0  0  0  0
  3 13  1  0  0  0  0
  3 12  1  0  0  0  0
  4 17  1  0  0  0  0
  5  9  1  0  0  0  0
  5 10  1  0  0  0  0
  6  2  1  0  0  0  0
  8  5  1  0  0  0  0
 11  3  1  0  0  0  0
 13 16  1  0  0  0  0
 14 13  1  0  0  0  0
 15 13  1  0  0  0  0
 18  4  1  0  0  0  0
 19  4  1  0  0  0  0
M  END
$$$$
