Compound 065, distorted structure 06
 OpenBabel12102416393D

 20 19  0  0  0  0  0  0  0  0999 V2000
    0.6748   -0.3276   -0.2073 N   0  0  0  0  0  4  0  0  0  0  0  0
   -0.7581    0.5361    0.1117 B   0  0  0  0  0  0  0  0  0  0  0  0
    1.4601    0.2030   -1.2081 C   0  0  0  0  0  0  0  0  0  0  0  0
    0.9569    0.3091   -2.1219 H   0  0  0  0  0  0  0  0  0  0  0  0
    2.4251   -0.2956   -1.4492 H   0  0  0  0  0  0  0  0  0  0  0  0
    1.7106    1.2207   -0.8809 H   0  0  0  0  0  0  0  0  0  0  0  0
    1.5534   -0.5963    1.0092 C   0  0  0  0  0  0  0  0  0  0  0  0
    0.3211   -1.3339   -0.4792 H   0  0  0  0  0  0  0  0  0  0  0  0
    1.7741    0.3821    1.5106 H   0  0  0  0  0  0  0  0  0  0  0  0
    2.4211   -1.1146    0.8099 H   0  0  0  0  0  0  0  0  0  0  0  0
    0.8868   -1.1884    1.7493 H   0  0  0  0  0  0  0  0  0  0  0  0
   -1.5548    0.6209   -1.2823 C   0  0  0  0  0  0  0  0  0  0  0  0
   -1.7774   -0.3925   -1.6838 H   0  0  0  0  0  0  0  0  0  0  0  0
   -1.0404    1.2580   -2.0626 H   0  0  0  0  0  0  0  0  0  0  0  0
   -2.5058    1.1029   -1.0111 H   0  0  0  0  0  0  0  0  0  0  0  0
   -1.4955   -0.2512    1.3330 C   0  0  0  0  0  0  0  0  0  0  0  0
   -0.2222    1.5851    0.4877 H   0  0  0  0  0  0  0  0  0  0  0  0
   -2.5387    0.2182    1.3674 H   0  0  0  0  0  0  0  0  0  0  0  0
   -1.1516   -0.2782    2.3032 H   0  0  0  0  0  0  0  0  0  0  0  0
   -1.8250   -1.3220    0.9697 H   0  0  0  0  0  0  0  0  0  0  0  0
  1  2  1  0  0  0  0
  1  7  1  0  0  0  0
  2 17  1  0  0  0  0
  2 16  1  0  0  0  0
  3  6  1  0  0  0  0
  3  1  1  0  0  0  0
  4  3  1  0  0  0  0
  5  3  1  0  0  0  0
  7  9  1  0  0  0  0
  7 11  1  0  0  0  0
  8  1  1  0  0  0  0
 10  7  1  0  0  0  0
 12 15  1  0  0  0  0
 12  2  1  0  0  0  0
 13 12  1  0  0  0  0
 14 12  1  0  0  0  0
 16 18  1  0  0  0  0
 16 19  1  0  0  0  0
 20 16  1  0  0  0  0
M  END
$$$$
