Compound 065, distorted structure 05
 OpenBabel11072411473D

 20 19  0  0  0  0  0  0  0  0999 V2000
    0.7274   -0.3285   -0.1433 N   0  0  0  0  0  4  0  0  0  0  0  0
   -0.6998    0.5618    0.1599 B   0  0  0  0  0  0  0  0  0  0  0  0
    1.5332    0.2010   -1.1864 C   0  0  0  0  0  0  0  0  0  0  0  0
    0.8826    0.3054   -2.1341 H   0  0  0  0  0  0  0  0  0  0  0  0
    2.3864   -0.3386   -1.4485 H   0  0  0  0  0  0  0  0  0  0  0  0
    1.7202    1.1921   -0.9682 H   0  0  0  0  0  0  0  0  0  0  0  0
    1.4917   -0.6038    1.0262 C   0  0  0  0  0  0  0  0  0  0  0  0
    0.3677   -1.2608   -0.5452 H   0  0  0  0  0  0  0  0  0  0  0  0
    1.7842    0.3319    1.4790 H   0  0  0  0  0  0  0  0  0  0  0  0
    2.4137   -1.1511    0.8131 H   0  0  0  0  0  0  0  0  0  0  0  0
    0.9545   -1.1500    1.7766 H   0  0  0  0  0  0  0  0  0  0  0  0
   -1.5806    0.6639   -1.1906 C   0  0  0  0  0  0  0  0  0  0  0  0
   -1.7117   -0.3472   -1.7170 H   0  0  0  0  0  0  0  0  0  0  0  0
   -1.1187    1.2817   -1.9689 H   0  0  0  0  0  0  0  0  0  0  0  0
   -2.4876    1.1175   -0.9702 H   0  0  0  0  0  0  0  0  0  0  0  0
   -1.4976   -0.2290    1.2949 C   0  0  0  0  0  0  0  0  0  0  0  0
   -0.2185    1.5773    0.5546 H   0  0  0  0  0  0  0  0  0  0  0  0
   -2.5735    0.1955    1.4379 H   0  0  0  0  0  0  0  0  0  0  0  0
   -1.1092   -0.2618    2.3470 H   0  0  0  0  0  0  0  0  0  0  0  0
   -1.8237   -1.3428    1.0293 H   0  0  0  0  0  0  0  0  0  0  0  0
  1  2  1  0  0  0  0
  1  7  1  0  0  0  0
  2 17  1  0  0  0  0
  2 16  1  0  0  0  0
  3  6  1  0  0  0  0
  3  1  1  0  0  0  0
  4  3  1  0  0  0  0
  5  3  1  0  0  0  0
  7  9  1  0  0  0  0
  7 11  1  0  0  0  0
  8  1  1  0  0  0  0
 10  7  1  0  0  0  0
 12 15  1  0  0  0  0
 12  2  1  0  0  0  0
 13 12  1  0  0  0  0
 14 12  1  0  0  0  0
 16 18  1  0  0  0  0
 16 19  1  0  0  0  0
 20 16  1  0  0  0  0
M  END
$$$$
