Compound 065, distorted structure 09
 OpenBabel12102416393D

 20 19  0  0  0  0  0  0  0  0999 V2000
    0.6934   -0.4459   -0.1214 N   0  0  0  0  0  4  0  0  0  0  0  0
   -0.7283    0.4278    0.1449 B   0  0  0  0  0  0  0  0  0  0  0  0
    1.5102    0.1463   -1.3094 C   0  0  0  0  0  0  0  0  0  0  0  0
    0.9268    0.1734   -2.1858 H   0  0  0  0  0  0  0  0  0  0  0  0
    2.4224   -0.2693   -1.3593 H   0  0  0  0  0  0  0  0  0  0  0  0
    1.7155    1.3324   -0.9058 H   0  0  0  0  0  0  0  0  0  0  0  0
    1.5565   -0.6239    0.9661 C   0  0  0  0  0  0  0  0  0  0  0  0
    0.4183   -1.2906   -0.5547 H   0  0  0  0  0  0  0  0  0  0  0  0
    1.7772    0.3639    1.4716 H   0  0  0  0  0  0  0  0  0  0  0  0
    2.3671   -1.1059    0.7702 H   0  0  0  0  0  0  0  0  0  0  0  0
    0.8540   -1.2047    1.8486 H   0  0  0  0  0  0  0  0  0  0  0  0
   -1.5214    0.6064   -1.2655 C   0  0  0  0  0  0  0  0  0  0  0  0
   -1.8363   -0.3390   -1.7522 H   0  0  0  0  0  0  0  0  0  0  0  0
   -1.0355    1.2094   -2.0801 H   0  0  0  0  0  0  0  0  0  0  0  0
   -2.5275    1.0201   -0.9592 H   0  0  0  0  0  0  0  0  0  0  0  0
   -1.6388   -0.3216    1.3626 C   0  0  0  0  0  0  0  0  0  0  0  0
   -0.1671    1.5472    0.5954 H   0  0  0  0  0  0  0  0  0  0  0  0
   -2.5987    0.2658    1.4751 H   0  0  0  0  0  0  0  0  0  0  0  0
   -1.0596   -0.3524    2.3211 H   0  0  0  0  0  0  0  0  0  0  0  0
   -1.8504   -1.2816    0.9931 H   0  0  0  0  0  0  0  0  0  0  0  0
  1  2  1  0  0  0  0
  1  7  1  0  0  0  0
  2 17  1  0  0  0  0
  2 16  1  0  0  0  0
  3  6  1  0  0  0  0
  3  1  1  0  0  0  0
  4  3  1  0  0  0  0
  5  3  1  0  0  0  0
  7  9  1  0  0  0  0
  7 11  1  0  0  0  0
  8  1  1  0  0  0  0
 10  7  1  0  0  0  0
 12 15  1  0  0  0  0
 12  2  1  0  0  0  0
 13 12  1  0  0  0  0
 14 12  1  0  0  0  0
 16 18  1  0  0  0  0
 16 19  1  0  0  0  0
 20 16  1  0  0  0  0
M  END
$$$$
