Compound 067, distorted structure 07
 OpenBabel12102416393D

 14 12  0  0  0  0  0  0  0  0999 V2000
    1.8548   -0.1079    0.5172 C   0  0  0  0  0  0  0  0  0  0  0  0
    1.3145   -1.2414    0.4797 O   0  0  0  0  0  0  0  0  0  0  0  0
   -1.5698    0.0433    0.6020 C   0  0  0  0  0  0  0  0  0  0  0  0
   -1.1430    1.1965    0.5938 O   0  0  0  0  0  0  0  0  0  0  0  0
    1.7309    0.9757   -0.5559 C   0  0  0  0  0  0  0  0  0  0  0  0
    2.5579    0.0486    1.3047 H   0  0  0  0  0  0  0  0  0  0  0  0
    1.1553    0.5679   -1.4250 H   0  0  0  0  0  0  0  0  0  0  0  0
    2.8788    1.1286   -0.9552 H   0  0  0  0  0  0  0  0  0  0  0  0
    1.3689    1.8080   -0.1590 H   0  0  0  0  0  0  0  0  0  0  0  0
   -2.0030   -0.7890   -0.5875 C   0  0  0  0  0  0  0  0  0  0  0  0
   -1.4297   -0.5691    1.4474 H   0  0  0  0  0  0  0  0  0  0  0  0
   -1.9447   -0.0784   -1.5541 H   0  0  0  0  0  0  0  0  0  0  0  0
   -3.0184   -1.1707   -0.3869 H   0  0  0  0  0  0  0  0  0  0  0  0
   -1.2478   -1.7137   -0.8824 H   0  0  0  0  0  0  0  0  0  0  0  0
  1  6  1  0  0  0  0
  2  1  2  0  0  0  0
  3 11  1  0  0  0  0
  4  3  2  0  0  0  0
  5  9  1  0  0  0  0
  5  1  1  0  0  0  0
  7  5  1  0  0  0  0
  8  5  1  0  0  0  0
 10 13  1  0  0  0  0
 10  3  1  0  0  0  0
 12 10  1  0  0  0  0
 14 10  1  0  0  0  0
M  END
$$$$
