Compound 067, distorted structure 05
 OpenBabel12112416303D

 14 12  0  0  0  0  0  0  0  0999 V2000
    1.8419   -0.1983    0.4153 C   0  0  0  0  0  0  0  0  0  0  0  0
    1.1979   -1.1311    0.4454 O   0  0  0  0  0  0  0  0  0  0  0  0
   -1.4573   -0.0130    0.5167 C   0  0  0  0  0  0  0  0  0  0  0  0
   -1.1827    1.1134    0.5289 O   0  0  0  0  0  0  0  0  0  0  0  0
    1.8370    0.8964   -0.6319 C   0  0  0  0  0  0  0  0  0  0  0  0
    2.5920    0.0770    1.3056 H   0  0  0  0  0  0  0  0  0  0  0  0
    1.1589    0.5265   -1.4802 H   0  0  0  0  0  0  0  0  0  0  0  0
    2.7779    1.1126   -0.9697 H   0  0  0  0  0  0  0  0  0  0  0  0
    1.3433    1.7678   -0.1967 H   0  0  0  0  0  0  0  0  0  0  0  0
   -1.9710   -0.7761   -0.6312 C   0  0  0  0  0  0  0  0  0  0  0  0
   -1.4592   -0.6183    1.4964 H   0  0  0  0  0  0  0  0  0  0  0  0
   -1.9476   -0.1395   -1.4760 H   0  0  0  0  0  0  0  0  0  0  0  0
   -2.9061   -1.2585   -0.3881 H   0  0  0  0  0  0  0  0  0  0  0  0
   -1.2739   -1.6728   -0.7935 H   0  0  0  0  0  0  0  0  0  0  0  0
  1  2  2  0  0  0  0
  1  6  1  0  0  0  0
  3  4  2  0  0  0  0
  3 11  1  0  0  0  0
  5  9  1  0  0  0  0
  5  1  1  0  0  0  0
  7  5  1  0  0  0  0
  8  5  1  0  0  0  0
 10 13  1  0  0  0  0
 10  3  1  0  0  0  0
 12 10  1  0  0  0  0
 14 10  1  0  0  0  0
M  END
$$$$
