Compound 067, distorted structure 04
 OpenBabel12112416303D

 14 12  0  0  0  0  0  0  0  0999 V2000
    1.9018   -0.1838    0.4411 C   0  0  0  0  0  0  0  0  0  0  0  0
    1.1831   -1.2294    0.4745 O   0  0  0  0  0  0  0  0  0  0  0  0
   -1.4874   -0.0361    0.6076 C   0  0  0  0  0  0  0  0  0  0  0  0
   -1.1250    1.1901    0.6014 O   0  0  0  0  0  0  0  0  0  0  0  0
    1.8040    0.8487   -0.6373 C   0  0  0  0  0  0  0  0  0  0  0  0
    2.5168    0.0166    1.2267 H   0  0  0  0  0  0  0  0  0  0  0  0
    1.2449    0.5189   -1.5086 H   0  0  0  0  0  0  0  0  0  0  0  0
    2.7711    1.1878   -0.9859 H   0  0  0  0  0  0  0  0  0  0  0  0
    1.4273    1.7297   -0.2122 H   0  0  0  0  0  0  0  0  0  0  0  0
   -1.9560   -0.7965   -0.5788 C   0  0  0  0  0  0  0  0  0  0  0  0
   -1.4467   -0.6562    1.5586 H   0  0  0  0  0  0  0  0  0  0  0  0
   -2.0470   -0.2170   -1.4960 H   0  0  0  0  0  0  0  0  0  0  0  0
   -2.9683   -1.1819   -0.4127 H   0  0  0  0  0  0  0  0  0  0  0  0
   -1.2801   -1.6770   -0.7488 H   0  0  0  0  0  0  0  0  0  0  0  0
  1  2  2  0  0  0  0
  1  6  1  0  0  0  0
  3 11  1  0  0  0  0
  4  3  2  0  0  0  0
  5  9  1  0  0  0  0
  5  1  1  0  0  0  0
  7  5  1  0  0  0  0
  8  5  1  0  0  0  0
 10 13  1  0  0  0  0
 10  3  1  0  0  0  0
 12 10  1  0  0  0  0
 14 10  1  0  0  0  0
M  END
$$$$
