Compound 069, distorted structure 09
 OpenBabel12112416303D

 17 16  0  0  0  0  0  0  0  0999 V2000
    1.4988    1.0796   -0.0839 N   0  0  0  0  0  4  0  0  0  0  0  0
    0.8898    1.1899   -1.2083 C   0  0  0  0  0  0  0  0  0  0  0  0
    1.4640    1.0480   -2.1210 H   0  0  0  0  0  0  0  0  0  0  0  0
   -0.6591    1.2656   -1.2558 C   0  0  0  0  0  0  0  0  0  0  0  0
   -1.0162    1.2204   -2.1735 H   0  0  0  0  0  0  0  0  0  0  0  0
   -1.3407    1.3391   -0.0689 C   0  0  0  0  0  0  0  0  0  0  0  0
   -2.4279    1.3060   -0.0673 H   0  0  0  0  0  0  0  0  0  0  0  0
   -0.6162    1.3113    1.2174 C   0  0  0  0  0  3  0  0  0  0  0  0
   -1.0108    1.3603    2.2310 H   0  0  0  0  0  0  0  0  0  0  0  0
    0.7810    1.1530    1.0787 C   0  0  0  0  0  0  0  0  0  0  0  0
    1.4497    1.2178    2.0746 H   0  0  0  0  0  0  0  0  0  0  0  0
    0.0899   -2.3357    0.6264 C   0  0  0  0  0  3  0  0  0  0  0  0
    1.1588   -2.1471    1.2940 H   0  0  0  0  0  0  0  0  0  0  0  0
   -0.7849   -2.3643    1.2744 H   0  0  0  0  0  0  0  0  0  0  0  0
    0.1045   -2.2235   -0.7509 C   0  0  0  0  0  3  0  0  0  0  0  0
    1.1280   -2.0847   -1.2266 H   0  0  0  0  0  0  0  0  0  0  0  0
   -0.6870   -2.4337   -1.3213 H   0  0  0  0  0  0  0  0  0  0  0  0
  1 10  2  0  0  0  0
  2  1  2  0  0  0  0
  3  2  1  0  0  0  0
  4  2  1  0  0  0  0
  4  6  2  0  0  0  0
  5  4  1  0  0  0  0
  6  7  1  0  0  0  0
  6  8  1  0  0  0  0
  8  9  1  0  0  0  0
 10  8  1  0  0  0  0
 10 11  1  0  0  0  0
 12 14  1  0  0  0  0
 12 13  1  0  0  0  0
 15 12  1  0  0  0  0
 16 15  1  0  0  0  0
 17 15  1  0  0  0  0
M  END
$$$$
