Compound 069, distorted structure 05
 OpenBabel12112416303D

 17 16  0  0  0  0  0  0  0  0999 V2000
    1.4630    1.1473   -0.0489 N   0  0  0  0  0  4  0  0  0  0  0  0
    0.7859    1.1090   -1.1629 C   0  0  0  0  0  0  0  0  0  0  0  0
    1.4324    1.1401   -2.0505 H   0  0  0  0  0  0  0  0  0  0  0  0
   -0.5699    1.2527   -1.2094 C   0  0  0  0  0  3  0  0  0  0  0  0
   -1.0534    1.2384   -2.1987 H   0  0  0  0  0  0  0  0  0  0  0  0
   -1.2704    1.3233    0.0618 C   0  0  0  0  0  0  0  0  0  0  0  0
   -2.3627    1.3816    0.0235 H   0  0  0  0  0  0  0  0  0  0  0  0
   -0.6215    1.2508    1.2372 C   0  0  0  0  0  0  0  0  0  0  0  0
   -1.0181    1.3427    2.1954 H   0  0  0  0  0  0  0  0  0  0  0  0
    0.7910    1.1805    1.1060 C   0  0  0  0  0  0  0  0  0  0  0  0
    1.3840    1.0707    2.0777 H   0  0  0  0  0  0  0  0  0  0  0  0
    0.2043   -2.2722    0.6999 C   0  0  0  0  0  0  0  0  0  0  0  0
    1.1141   -2.1270    1.1880 H   0  0  0  0  0  0  0  0  0  0  0  0
   -0.7051   -2.4785    1.2335 H   0  0  0  0  0  0  0  0  0  0  0  0
    0.1148   -2.2162   -0.6404 C   0  0  0  0  0  0  0  0  0  0  0  0
    1.0219   -2.0890   -1.2418 H   0  0  0  0  0  0  0  0  0  0  0  0
   -0.7323   -2.3966   -1.2159 H   0  0  0  0  0  0  0  0  0  0  0  0
  1 10  2  0  0  0  0
  2  1  2  0  0  0  0
  3  2  1  0  0  0  0
  4  2  1  0  0  0  0
  4  6  1  0  0  0  0
  5  4  1  0  0  0  0
  6  8  2  0  0  0  0
  7  6  1  0  0  0  0
  8  9  1  0  0  0  0
 10  8  1  0  0  0  0
 10 11  1  0  0  0  0
 12 13  1  0  0  0  0
 12 14  1  0  0  0  0
 15 12  2  0  0  0  0
 16 15  1  0  0  0  0
 17 15  1  0  0  0  0
M  END
$$$$
