Compound 069, distorted structure 01
 OpenBabel12112416303D

 17 16  0  0  0  0  0  0  0  0999 V2000
    1.5195    1.1188    0.0098 N   0  0  0  0  0  4  0  0  0  0  0  0
    0.8061    1.1671   -1.1279 C   0  0  0  0  0  0  0  0  0  0  0  0
    1.4099    1.1147   -2.0693 H   0  0  0  0  0  0  0  0  0  0  0  0
   -0.5602    1.2677   -1.2003 C   0  0  0  0  0  0  0  0  0  0  0  0
   -1.0733    1.2749   -2.1651 H   0  0  0  0  0  0  0  0  0  0  0  0
   -1.2773    1.2934    0.0009 C   0  0  0  0  0  0  0  0  0  0  0  0
   -2.3681    1.3734   -0.0127 H   0  0  0  0  0  0  0  0  0  0  0  0
   -0.5664    1.2638    1.1864 C   0  0  0  0  0  3  0  0  0  0  0  0
   -1.0672    1.2890    2.1392 H   0  0  0  0  0  0  0  0  0  0  0  0
    0.8163    1.1812    1.1281 C   0  0  0  0  0  0  0  0  0  0  0  0
    1.3904    1.1231    2.0496 H   0  0  0  0  0  0  0  0  0  0  0  0
    0.1549   -2.2617    0.6693 C   0  0  0  0  0  0  0  0  0  0  0  0
    1.0749   -2.0782    1.2185 H   0  0  0  0  0  0  0  0  0  0  0  0
   -0.7374   -2.4270    1.2363 H   0  0  0  0  0  0  0  0  0  0  0  0
    0.1604   -2.2415   -0.6765 C   0  0  0  0  0  0  0  0  0  0  0  0
    1.0820   -2.0599   -1.2255 H   0  0  0  0  0  0  0  0  0  0  0  0
   -0.7505   -2.4271   -1.2483 H   0  0  0  0  0  0  0  0  0  0  0  0
  1 10  2  0  0  0  0
  2  1  2  0  0  0  0
  3  2  1  0  0  0  0
  4  2  1  0  0  0  0
  4  6  2  0  0  0  0
  5  4  1  0  0  0  0
  6  8  1  0  0  0  0
  7  6  1  0  0  0  0
  8  9  1  0  0  0  0
 10  8  1  0  0  0  0
 10 11  1  0  0  0  0
 12 13  1  0  0  0  0
 12 14  1  0  0  0  0
 15 12  2  0  0  0  0
 16 15  1  0  0  0  0
 17 15  1  0  0  0  0
M  END
$$$$
