Compound 070, distorted structure 03
 OpenBabel12112416303D

 18 16  0  0  0  0  0  0  0  0999 V2000
    1.6936    0.3014   -1.1464 C   0  0  0  0  0  0  0  0  0  0  0  0
    1.6855    1.2701   -1.5895 H   0  0  0  0  0  0  0  0  0  0  0  0
    2.3397   -0.3484   -1.6638 H   0  0  0  0  0  0  0  0  0  0  0  0
    2.0406    0.3855   -0.1195 H   0  0  0  0  0  0  0  0  0  0  0  0
    0.2891   -0.3549   -1.1014 C   0  0  0  0  0  0  0  0  0  0  0  0
    0.1579   -1.5042   -0.7799 O   0  0  0  0  0  0  0  0  0  0  0  0
   -0.7456    0.4591   -1.3957 N   0  0  0  0  0  0  0  0  0  0  0  0
   -0.5331    1.4516   -1.6305 H   0  0  0  0  0  0  0  0  0  0  0  0
   -2.1274    0.0416   -1.3676 C   0  0  0  0  0  0  0  0  0  0  0  0
   -2.1138   -1.0162   -1.2851 H   0  0  0  0  0  0  0  0  0  0  0  0
   -2.6236    0.4570   -0.4783 H   0  0  0  0  0  0  0  0  0  0  0  0
   -2.6672    0.3574   -2.2817 H   0  0  0  0  0  0  0  0  0  0  0  0
    0.0304    0.3151    2.4152 C   0  0  0  0  0  0  0  0  0  0  0  0
    0.0333    1.0329    3.1708 H   0  0  0  0  0  0  0  0  0  0  0  0
   -0.5810    0.4564    1.5803 H   0  0  0  0  0  0  0  0  0  0  0  0
    0.8429   -0.8149    2.5123 C   0  0  0  0  0  0  0  0  0  0  0  0
    1.4900   -0.9241    3.3296 H   0  0  0  0  0  0  0  0  0  0  0  0
    0.8270   -1.5650    1.7345 H   0  0  0  0  0  0  0  0  0  0  0  0
  1  5  1  0  0  0  0
  1  4  1  0  0  0  0
  2  1  1  0  0  0  0
  3  1  1  0  0  0  0
  5  6  2  0  0  0  0
  7  9  1  0  0  0  0
  7  5  1  0  0  0  0
  8  7  1  0  0  0  0
  9 10  1  0  0  0  0
  9 11  1  0  0  0  0
 12  9  1  0  0  0  0
 13 16  2  0  0  0  0
 13 14  1  0  0  0  0
 15 13  1  0  0  0  0
 16 17  1  0  0  0  0
 18 16  1  0  0  0  0
M  END
$$$$
