Compound 071, distorted structure 06
 OpenBabel12112416303D

 21 19  0  0  0  0  0  0  0  0999 V2000
    1.9150   -2.3078   -0.6059 C   0  0  0  0  0  0  0  0  0  0  0  0
    1.9274   -2.3305   -1.6130 H   0  0  0  0  0  0  0  0  0  0  0  0
    1.9548   -2.2707    0.5810 C   0  0  0  0  0  0  0  0  0  0  0  0
    1.9050   -2.2856    1.7248 H   0  0  0  0  0  0  0  0  0  0  0  0
   -0.6680    0.3846   -2.5084 C   0  0  0  0  0  0  0  0  0  0  0  0
   -0.6432   -0.7382   -2.5570 H   0  0  0  0  0  0  0  0  0  0  0  0
   -1.7600    0.6301   -2.6641 H   0  0  0  0  0  0  0  0  0  0  0  0
   -0.1854    0.7264   -3.5018 H   0  0  0  0  0  0  0  0  0  0  0  0
   -0.0315    0.8724   -1.3084 C   0  0  0  0  0  0  0  0  0  0  0  0
   -0.0341    1.9679   -1.3357 H   0  0  0  0  0  0  0  0  0  0  0  0
    1.0164    0.5589   -1.2966 H   0  0  0  0  0  0  0  0  0  0  0  0
   -0.7582    0.3518   -0.0629 C   0  0  0  0  0  0  0  0  0  0  0  0
   -1.8012    0.6825    0.0075 H   0  0  0  0  0  0  0  0  0  0  0  0
   -0.6769   -0.6615   -0.0470 H   0  0  0  0  0  0  0  0  0  0  0  0
    0.0241    0.9185    1.2403 C   0  0  0  0  0  0  0  0  0  0  0  0
   -0.0685    1.9198    1.2505 H   0  0  0  0  0  0  0  0  0  0  0  0
    1.0338    0.5229    1.2219 H   0  0  0  0  0  0  0  0  0  0  0  0
   -0.6593    0.3913    2.4948 C   0  0  0  0  0  0  0  0  0  0  0  0
   -0.7013   -0.7040    2.5733 H   0  0  0  0  0  0  0  0  0  0  0  0
   -0.1968    0.6981    3.4849 H   0  0  0  0  0  0  0  0  0  0  0  0
   -1.7488    0.6862    2.6210 H   0  0  0  0  0  0  0  0  0  0  0  0
  1  3  3  0  0  0  0
  2  1  1  0  0  0  0
  3  4  1  0  0  0  0
  5  9  1  0  0  0  0
  6  5  1  0  0  0  0
  7  5  1  0  0  0  0
  8  5  1  0  0  0  0
  9 11  1  0  0  0  0
  9 12  1  0  0  0  0
 10  9  1  0  0  0  0
 12 14  1  0  0  0  0
 12 13  1  0  0  0  0
 12 15  1  0  0  0  0
 15 16  1  0  0  0  0
 15 18  1  0  0  0  0
 17 15  1  0  0  0  0
 18 19  1  0  0  0  0
 18 21  1  0  0  0  0
 18 20  1  0  0  0  0
M  END
$$$$
