Compound 071, distorted structure 08
 OpenBabel11072411463D

 21 19  0  0  0  0  0  0  0  0999 V2000
    1.9551   -2.2109   -0.5914 C   0  0  0  0  0  0  0  0  0  0  0  0
    1.9530   -2.3277   -1.6541 H   0  0  0  0  0  0  0  0  0  0  0  0
    1.8195   -2.2470    0.5476 C   0  0  0  0  0  0  0  0  0  0  0  0
    1.8868   -2.3298    1.6685 H   0  0  0  0  0  0  0  0  0  0  0  0
   -0.6652    0.3380   -2.4785 C   0  0  0  0  0  0  0  0  0  0  0  0
   -0.6971   -0.7428   -2.6239 H   0  0  0  0  0  0  0  0  0  0  0  0
   -1.6695    0.6861   -2.6491 H   0  0  0  0  0  0  0  0  0  0  0  0
   -0.1829    0.6078   -3.4883 H   0  0  0  0  0  0  0  0  0  0  0  0
   -0.0304    0.9437   -1.2216 C   0  0  0  0  0  0  0  0  0  0  0  0
    0.0193    2.0633   -1.3878 H   0  0  0  0  0  0  0  0  0  0  0  0
    1.0309    0.5997   -1.3020 H   0  0  0  0  0  0  0  0  0  0  0  0
   -0.7356    0.4165   -0.0738 C   0  0  0  0  0  0  0  0  0  0  0  0
   -1.7886    0.6603   -0.0244 H   0  0  0  0  0  0  0  0  0  0  0  0
   -0.6397   -0.6581   -0.0285 H   0  0  0  0  0  0  0  0  0  0  0  0
   -0.0698    0.9322    1.2114 C   0  0  0  0  0  0  0  0  0  0  0  0
    0.0595    2.0206    1.2705 H   0  0  0  0  0  0  0  0  0  0  0  0
    1.0661    0.5875    1.1911 H   0  0  0  0  0  0  0  0  0  0  0  0
   -0.7501    0.3422    2.4735 C   0  0  0  0  0  0  0  0  0  0  0  0
   -0.6929   -0.6751    2.5240 H   0  0  0  0  0  0  0  0  0  0  0  0
   -0.1150    0.6206    3.5182 H   0  0  0  0  0  0  0  0  0  0  0  0
   -1.6930    0.6892    2.6532 H   0  0  0  0  0  0  0  0  0  0  0  0
  1  3  3  0  0  0  0
  2  1  1  0  0  0  0
  3  4  1  0  0  0  0
  5  9  1  0  0  0  0
  6  5  1  0  0  0  0
  7  5  1  0  0  0  0
  8  5  1  0  0  0  0
  9 12  1  0  0  0  0
 10  9  1  0  0  0  0
 11  9  1  0  0  0  0
 12 14  1  0  0  0  0
 12 13  1  0  0  0  0
 12 15  1  0  0  0  0
 15 16  1  0  0  0  0
 15 18  1  0  0  0  0
 17 15  1  0  0  0  0
 18 19  1  0  0  0  0
 18 21  1  0  0  0  0
 18 20  1  0  0  0  0
M  END
$$$$
