Compound 071 optimized with r2SCAN-3c
 OpenBabel12112416303D

 21 19  0  0  0  0  0  0  0  0999 V2000
    1.9003   -2.2901   -0.6004 C   0  0  0  0  0  0  0  0  0  0  0  0
    1.8994   -2.2880   -1.6644 H   0  0  0  0  0  0  0  0  0  0  0  0
    1.9006   -2.2901    0.6004 C   0  0  0  0  0  0  0  0  0  0  0  0
    1.8996   -2.2881    1.6644 H   0  0  0  0  0  0  0  0  0  0  0  0
   -0.6754    0.3417   -2.5417 C   0  0  0  0  0  0  0  0  0  0  0  0
   -0.6634   -0.7547   -2.5512 H   0  0  0  0  0  0  0  0  0  0  0  0
   -1.7228    0.6578   -2.6039 H   0  0  0  0  0  0  0  0  0  0  0  0
   -0.1665    0.6922   -3.4456 H   0  0  0  0  0  0  0  0  0  0  0  0
   -0.0137    0.8807   -1.2751 C   0  0  0  0  0  0  0  0  0  0  0  0
   -0.0141    1.9794   -1.2952 H   0  0  0  0  0  0  0  0  0  0  0  0
    1.0408    0.5735   -1.2482 H   0  0  0  0  0  0  0  0  0  0  0  0
   -0.7004    0.3952   -0.0000 C   0  0  0  0  0  0  0  0  0  0  0  0
   -1.7503    0.7239   -0.0000 H   0  0  0  0  0  0  0  0  0  0  0  0
   -0.7187   -0.7040   -0.0000 H   0  0  0  0  0  0  0  0  0  0  0  0
   -0.0138    0.8808    1.2751 C   0  0  0  0  0  0  0  0  0  0  0  0
   -0.0142    1.9794    1.2952 H   0  0  0  0  0  0  0  0  0  0  0  0
    1.0408    0.5736    1.2482 H   0  0  0  0  0  0  0  0  0  0  0  0
   -0.6754    0.3416    2.5417 C   0  0  0  0  0  0  0  0  0  0  0  0
   -0.6634   -0.7547    2.5512 H   0  0  0  0  0  0  0  0  0  0  0  0
   -0.1665    0.6922    3.4456 H   0  0  0  0  0  0  0  0  0  0  0  0
   -1.7229    0.6578    2.6039 H   0  0  0  0  0  0  0  0  0  0  0  0
  1  3  3  0  0  0  0
  2  1  1  0  0  0  0
  3  4  1  0  0  0  0
  5  9  1  0  0  0  0
  6  5  1  0  0  0  0
  7  5  1  0  0  0  0
  8  5  1  0  0  0  0
  9 11  1  0  0  0  0
  9 12  1  0  0  0  0
 10  9  1  0  0  0  0
 12 15  1  0  0  0  0
 13 12  1  0  0  0  0
 14 12  1  0  0  0  0
 15 16  1  0  0  0  0
 15 18  1  0  0  0  0
 17 15  1  0  0  0  0
 18 19  1  0  0  0  0
 18 21  1  0  0  0  0
 18 20  1  0  0  0  0
M  END
$$$$
