Compound 071, distorted structure 02
 OpenBabel12112416303D

 21 19  0  0  0  0  0  0  0  0999 V2000
    1.9150   -2.2967   -0.6231 C   0  0  0  0  0  0  0  0  0  0  0  0
    1.8813   -2.2952   -1.6577 H   0  0  0  0  0  0  0  0  0  0  0  0
    1.8834   -2.3031    0.5836 C   0  0  0  0  0  0  0  0  0  0  0  0
    1.8944   -2.3050    1.6532 H   0  0  0  0  0  0  0  0  0  0  0  0
   -0.6503    0.3634   -2.5353 C   0  0  0  0  0  0  0  0  0  0  0  0
   -0.6725   -0.7673   -2.5740 H   0  0  0  0  0  0  0  0  0  0  0  0
   -1.7147    0.6597   -2.6023 H   0  0  0  0  0  0  0  0  0  0  0  0
   -0.1751    0.6913   -3.4466 H   0  0  0  0  0  0  0  0  0  0  0  0
   -0.0079    0.8587   -1.2998 C   0  0  0  0  0  0  0  0  0  0  0  0
    0.0068    1.9842   -1.3015 H   0  0  0  0  0  0  0  0  0  0  0  0
    1.0555    0.5875   -1.2278 H   0  0  0  0  0  0  0  0  0  0  0  0
   -0.6976    0.3830   -0.0033 C   0  0  0  0  0  0  0  0  0  0  0  0
   -1.7487    0.7237   -0.0190 H   0  0  0  0  0  0  0  0  0  0  0  0
   -0.7428   -0.7266    0.0216 H   0  0  0  0  0  0  0  0  0  0  0  0
   -0.0059    0.8913    1.2579 C   0  0  0  0  0  0  0  0  0  0  0  0
    0.0065    2.0022    1.3158 H   0  0  0  0  0  0  0  0  0  0  0  0
    1.0518    0.5570    1.2412 H   0  0  0  0  0  0  0  0  0  0  0  0
   -0.6653    0.3579    2.5181 C   0  0  0  0  0  0  0  0  0  0  0  0
   -0.6779   -0.7613    2.5383 H   0  0  0  0  0  0  0  0  0  0  0  0
   -0.1648    0.7170    3.4509 H   0  0  0  0  0  0  0  0  0  0  0  0
   -1.7433    0.6509    2.6007 H   0  0  0  0  0  0  0  0  0  0  0  0
  1  3  3  0  0  0  0
  2  1  1  0  0  0  0
  3  4  1  0  0  0  0
  5  9  1  0  0  0  0
  6  5  1  0  0  0  0
  7  5  1  0  0  0  0
  8  5  1  0  0  0  0
  9 11  1  0  0  0  0
  9 12  1  0  0  0  0
 10  9  1  0  0  0  0
 12 14  1  0  0  0  0
 12 15  1  0  0  0  0
 13 12  1  0  0  0  0
 15 16  1  0  0  0  0
 15 18  1  0  0  0  0
 17 15  1  0  0  0  0
 18 19  1  0  0  0  0
 18 21  1  0  0  0  0
 18 20  1  0  0  0  0
M  END
$$$$
