Compound 073, distorted structure 02
 OpenBabel12102416393D

 11 10  0  0  0  0  0  0  0  0999 V2000
   -0.5835   -1.2123    0.1098 C   0  0  0  0  0  0  0  0  0  0  0  0
   -0.5660   -0.3107    1.1576 C   0  0  0  0  0  3  0  0  0  0  0  0
   -0.5699    1.0100    0.6476 C   0  0  0  0  0  0  0  0  0  0  0  0
   -0.6047    0.9123   -0.7667 C   0  0  0  0  0  0  0  0  0  0  0  0
   -0.5816   -0.4771   -1.1426 C   0  0  0  0  0  0  0  0  0  0  0  0
   -0.6597    1.7449   -1.4949 H   0  0  0  0  0  0  0  0  0  0  0  0
   -0.6644   -0.8528   -2.1271 H   0  0  0  0  0  0  0  0  0  0  0  0
   -0.6647   -2.2535    0.1420 H   0  0  0  0  0  0  0  0  0  0  0  0
   -0.6529   -0.5161    2.1975 H   0  0  0  0  0  0  0  0  0  0  0  0
   -0.6354    1.9764    1.1843 H   0  0  0  0  0  0  0  0  0  0  0  0
    1.6344    0.0134   -0.0227 *   0  0  0  0  0  0  0  0  0  0  0  0
  1  8  1  0  0  0  0
  1  2  1  0  0  0  0
  2  9  1  0  0  0  0
  3  2  1  0  0  0  0
  3 10  1  0  0  0  0
  4  3  2  0  0  0  0
  5  4  1  0  0  0  0
  5  1  2  0  0  0  0
  6  4  1  0  0  0  0
  7  5  1  0  0  0  0
M  END
$$$$
