Compound 073 optimized with r2SCAN-3c
 OpenBabel12102416393D

 11 11  0  0  1  0  0  0  0  0999 V2000
   -0.5798   -1.2027    0.0901 C   0  0  0  0  0  0  0  0  0  0  0  0
   -0.5803   -0.2860    1.1714 C   0  0  0  0  0  0  0  0  0  0  0  0
   -0.5807    1.0257    0.6337 C   0  0  0  0  0  3  0  0  0  0  0  0
   -0.5805    0.9196   -0.7798 C   0  0  2  0  0  0  0  0  0  0  0  0
   -0.5799   -0.4576   -1.1158 C   0  0  0  0  0  3  0  0  0  0  0  0
   -0.6388    1.7454   -1.4799 H   0  0  0  0  0  0  0  0  0  0  0  0
   -0.6379   -0.8682   -2.1176 H   0  0  0  0  0  0  0  0  0  0  0  0
   -0.6377   -2.2823    0.1712 H   0  0  0  0  0  0  0  0  0  0  0  0
   -0.6386   -0.5426    2.2232 H   0  0  0  0  0  0  0  0  0  0  0  0
   -0.6394    1.9467    1.2027 H   0  0  0  0  0  0  0  0  0  0  0  0
    1.6237    0.0007    0.0001 Na  0  0  0  0  0  0  0  0  0  0  0  0
  1  8  1  0  0  0  0
  1  2  2  0  0  0  0
  2  9  1  0  0  0  0
  3  2  1  0  0  0  0
  3 10  1  0  0  0  0
  4  6  1  6  0  0  0
  4 11  1  0  0  0  0
  4  3  1  0  0  0  0
  5  4  1  0  0  0  0
  5  1  1  0  0  0  0
  7  5  1  0  0  0  0
M  END
$$$$
