Compound 073, distorted structure 08
 OpenBabel11072411483D

 11 10  0  0  0  0  0  0  0  0999 V2000
   -0.5299   -1.1679    0.0544 C   0  0  0  0  0  0  0  0  0  0  0  0
   -0.6451   -0.2039    1.1338 C   0  0  0  0  0  3  0  0  0  0  0  0
   -0.5919    1.1003    0.6540 C   0  0  0  0  0  0  0  0  0  0  0  0
   -0.6260    0.8756   -0.7905 C   0  0  0  0  0  0  0  0  0  0  0  0
   -0.5583   -0.5217   -1.0440 C   0  0  0  0  0  0  0  0  0  0  0  0
   -0.6967    1.8272   -1.4699 H   0  0  0  0  0  0  0  0  0  0  0  0
   -0.6661   -0.8091   -2.2017 H   0  0  0  0  0  0  0  0  0  0  0  0
   -0.6872   -2.2569    0.2553 H   0  0  0  0  0  0  0  0  0  0  0  0
   -0.6907   -0.5754    2.3044 H   0  0  0  0  0  0  0  0  0  0  0  0
   -0.6687    1.9584    1.2780 H   0  0  0  0  0  0  0  0  0  0  0  0
    1.6075   -0.0805   -0.0554 *   0  0  0  0  0  0  0  0  0  0  0  0
  1  8  1  0  0  0  0
  1  2  1  0  0  0  0
  2  9  1  0  0  0  0
  3  2  1  0  0  0  0
  3 10  1  0  0  0  0
  4  3  2  0  0  0  0
  5  4  1  0  0  0  0
  5  1  2  0  0  0  0
  6  4  1  0  0  0  0
  7  5  1  0  0  0  0
M  END
$$$$
