Compound 074, distorted structure 05
 OpenBabel12102416393D

 14 12  0  0  0  0  0  0  0  0999 V2000
    0.3563   -0.0438   -0.0378 C   0  0  0  0  0  3  0  0  0  0  0  0
    0.8674    0.7676    1.1357 C   0  0  0  0  0  0  0  0  0  0  0  0
   -1.9773   -0.0313   -0.0489 *   0  0  0  0  0  0  0  0  0  0  0  0
    0.9532   -1.3691    0.1277 C   0  0  0  0  0  0  0  0  0  0  0  0
    0.9424    0.5312   -1.2540 C   0  0  0  0  0  0  0  0  0  0  0  0
    0.5591    1.8305    1.0296 H   0  0  0  0  0  0  0  0  0  0  0  0
    1.9407    0.8504    1.1810 H   0  0  0  0  0  0  0  0  0  0  0  0
    0.5846    0.4645    2.1116 H   0  0  0  0  0  0  0  0  0  0  0  0
    0.5252   -1.8759    1.0645 H   0  0  0  0  0  0  0  0  0  0  0  0
    2.0134   -1.4798    0.0922 H   0  0  0  0  0  0  0  0  0  0  0  0
    0.5670   -2.0090   -0.7043 H   0  0  0  0  0  0  0  0  0  0  0  0
    0.5732   -0.0402   -2.1798 H   0  0  0  0  0  0  0  0  0  0  0  0
    1.9355    0.5580   -1.2829 H   0  0  0  0  0  0  0  0  0  0  0  0
    0.6290    1.5652   -1.5288 H   0  0  0  0  0  0  0  0  0  0  0  0
  1  4  1  0  0  0  0
  1  2  1  0  0  0  0
  2  7  1  0  0  0  0
  2  8  1  0  0  0  0
  4  9  1  0  0  0  0
  5  1  1  0  0  0  0
  6  2  1  0  0  0  0
 10  4  1  0  0  0  0
 11  4  1  0  0  0  0
 12  5  1  0  0  0  0
 13  5  1  0  0  0  0
 14  5  1  0  0  0  0
M  END
$$$$
