Compound 075, distorted structure 06
 OpenBabel12102416393D

 12  9  0  0  0  0  0  0  0  0999 V2000
   -0.5711    0.0176    0.0666 *   0  0  0  0  0  0  0  0  0  0  0  0
    1.5907   -0.0508    0.3003 C   0  0  0  0  0  3  0  0  0  0  0  0
   -2.6551    0.1125   -0.2928 *   0  0  0  0  0  0  0  0  0  0  0  0
    2.2595    1.2904   -0.1971 C   0  0  0  0  0  0  0  0  0  0  0  0
    2.2616   -1.2546   -0.3565 C   0  0  0  0  0  0  0  0  0  0  0  0
    1.8213   -0.1766    1.4812 H   0  0  0  0  0  0  0  0  0  0  0  0
    3.3817   -1.3122   -0.1004 H   0  0  0  0  0  0  0  0  0  0  0  0
    2.0576   -1.3163   -1.3602 H   0  0  0  0  0  0  0  0  0  0  0  0
    1.7593   -2.2531    0.0161 H   0  0  0  0  0  0  0  0  0  0  0  0
    2.2932    1.3587   -1.1789 H   0  0  0  0  0  0  0  0  0  0  0  0
    3.3240    1.2610    0.1458 H   0  0  0  0  0  0  0  0  0  0  0  0
    1.9371    2.1043    0.4220 H   0  0  0  0  0  0  0  0  0  0  0  0
  2  6  1  0  0  0  0
  4 11  1  0  0  0  0
  4  2  1  0  0  0  0
  4 12  1  0  0  0  0
  5  7  1  0  0  0  0
  5  9  1  0  0  0  0
  5  2  1  0  0  0  0
  8  5  1  0  0  0  0
 10  4  1  0  0  0  0
M  END
$$$$
