Compound 075, distorted structure 04
 OpenBabel12102416393D

 12  9  0  0  0  0  0  0  0  0999 V2000
   -0.5196    0.0569    0.0451 *   0  0  0  0  0  0  0  0  0  0  0  0
    1.6633   -0.0232    0.2881 C   0  0  0  0  0  3  0  0  0  0  0  0
   -2.6953    0.1030   -0.3472 *   0  0  0  0  0  0  0  0  0  0  0  0
    2.3618    1.2913   -0.1669 C   0  0  0  0  0  0  0  0  0  0  0  0
    2.2597   -1.3122   -0.3451 C   0  0  0  0  0  0  0  0  0  0  0  0
    1.6940   -0.1484    1.3856 H   0  0  0  0  0  0  0  0  0  0  0  0
    3.3369   -1.2789   -0.0703 H   0  0  0  0  0  0  0  0  0  0  0  0
    2.1190   -1.2602   -1.3614 H   0  0  0  0  0  0  0  0  0  0  0  0
    1.7885   -2.1379    0.1144 H   0  0  0  0  0  0  0  0  0  0  0  0
    2.2327    1.3635   -1.1583 H   0  0  0  0  0  0  0  0  0  0  0  0
    3.4163    1.1400    0.0676 H   0  0  0  0  0  0  0  0  0  0  0  0
    1.9123    2.1295    0.3200 H   0  0  0  0  0  0  0  0  0  0  0  0
  2  6  1  0  0  0  0
  4 11  1  0  0  0  0
  4  2  1  0  0  0  0
  4 12  1  0  0  0  0
  5  7  1  0  0  0  0
  5  9  1  0  0  0  0
  5  2  1  0  0  0  0
  8  5  1  0  0  0  0
 10  4  1  0  0  0  0
M  END
$$$$
