Compound 076, distorted structure 06
 OpenBabel11072411473D

 15 12  0  0  0  0  0  0  0  0999 V2000
    1.1163   -0.3817    0.3235 *   0  0  0  0  0  0  0  0  0  0  0  0
    2.9398    0.5007    0.3606 C   0  0  0  0  0  3  0  0  0  0  0  0
   -0.9107   -1.1665    0.4291 C   0  0  0  0  0  3  0  0  0  0  0  0
    3.3948    0.5614   -0.6136 H   0  0  0  0  0  0  0  0  0  0  0  0
    3.5984   -0.0877    1.0351 H   0  0  0  0  0  0  0  0  0  0  0  0
    2.9158    1.4757    0.7687 H   0  0  0  0  0  0  0  0  0  0  0  0
   -1.9505   -0.1806   -0.1492 C   0  0  0  0  0  0  0  0  0  0  0  0
   -1.0828   -1.5646    1.3683 H   0  0  0  0  0  0  0  0  0  0  0  0
   -0.9364   -2.1185   -0.1458 H   0  0  0  0  0  0  0  0  0  0  0  0
   -1.7757   -0.1942   -1.3423 H   0  0  0  0  0  0  0  0  0  0  0  0
   -2.0042    1.0818    0.4622 C   0  0  0  0  0  0  0  0  0  0  0  0
   -2.9898   -0.7563   -0.1627 H   0  0  0  0  0  0  0  0  0  0  0  0
   -1.0376    1.6596    0.3415 H   0  0  0  0  0  0  0  0  0  0  0  0
   -2.0125    0.9957    1.5652 H   0  0  0  0  0  0  0  0  0  0  0  0
   -2.6788    1.8312    0.1870 H   0  0  0  0  0  0  0  0  0  0  0  0
  2  6  1  0  0  0  0
  2  5  1  0  0  0  0
  3  8  1  0  0  0  0
  4  2  1  0  0  0  0
  7  3  1  0  0  0  0
  7 11  1  0  0  0  0
  9  3  1  0  0  0  0
 10  7  1  0  0  0  0
 11 14  1  0  0  0  0
 12  7  1  0  0  0  0
 13 11  1  0  0  0  0
 15 11  1  0  0  0  0
M  END
$$$$
