Compound 076, distorted structure 08
 OpenBabel11072411473D

 15 12  0  0  0  0  0  0  0  0999 V2000
    1.1228   -0.2905    0.4044 *   0  0  0  0  0  0  0  0  0  0  0  0
    2.8848    0.4471    0.4275 C   0  0  0  0  0  3  0  0  0  0  0  0
   -0.9424   -1.1387    0.4239 C   0  0  0  0  0  3  0  0  0  0  0  0
    3.4558    0.5156   -0.4903 H   0  0  0  0  0  0  0  0  0  0  0  0
    3.6550   -0.0619    1.0769 H   0  0  0  0  0  0  0  0  0  0  0  0
    2.9770    1.5569    0.7752 H   0  0  0  0  0  0  0  0  0  0  0  0
   -1.8917   -0.1758   -0.1916 C   0  0  0  0  0  0  0  0  0  0  0  0
   -1.0988   -1.5730    1.3938 H   0  0  0  0  0  0  0  0  0  0  0  0
   -0.9330   -2.1282   -0.2841 H   0  0  0  0  0  0  0  0  0  0  0  0
   -1.8774   -0.0825   -1.2864 H   0  0  0  0  0  0  0  0  0  0  0  0
   -2.0014    1.1936    0.4409 C   0  0  0  0  0  0  0  0  0  0  0  0
   -2.9599   -0.7064   -0.0463 H   0  0  0  0  0  0  0  0  0  0  0  0
   -1.0105    1.5850    0.4056 H   0  0  0  0  0  0  0  0  0  0  0  0
   -2.0044    0.9624    1.6175 H   0  0  0  0  0  0  0  0  0  0  0  0
   -2.7873    1.7008    0.2029 H   0  0  0  0  0  0  0  0  0  0  0  0
  2  6  1  0  0  0  0
  2  5  1  0  0  0  0
  3  8  1  0  0  0  0
  4  2  1  0  0  0  0
  7 12  1  0  0  0  0
  7  3  1  0  0  0  0
  7 11  1  0  0  0  0
  9  3  1  0  0  0  0
 10  7  1  0  0  0  0
 11 14  1  0  0  0  0
 13 11  1  0  0  0  0
 15 11  1  0  0  0  0
M  END
$$$$
