Compound 076, distorted structure 05
 OpenBabel12102416393D

 15 12  0  0  0  0  0  0  0  0999 V2000
    1.0763   -0.4181    0.4677 *   0  0  0  0  0  0  0  0  0  0  0  0
    2.9128    0.4679    0.4481 C   0  0  0  0  0  3  0  0  0  0  0  0
   -0.8300   -1.2530    0.3380 C   0  0  0  0  0  3  0  0  0  0  0  0
    3.3382    0.6335   -0.5928 H   0  0  0  0  0  0  0  0  0  0  0  0
    3.7011   -0.0706    0.9792 H   0  0  0  0  0  0  0  0  0  0  0  0
    2.9752    1.5171    0.8927 H   0  0  0  0  0  0  0  0  0  0  0  0
   -2.0098   -0.2360   -0.2001 C   0  0  0  0  0  0  0  0  0  0  0  0
   -1.2122   -1.5675    1.3269 H   0  0  0  0  0  0  0  0  0  0  0  0
   -0.9447   -2.1769   -0.2299 H   0  0  0  0  0  0  0  0  0  0  0  0
   -1.7448   -0.1724   -1.2727 H   0  0  0  0  0  0  0  0  0  0  0  0
   -1.8617    1.1666    0.5597 C   0  0  0  0  0  0  0  0  0  0  0  0
   -2.9928   -0.6550   -0.1082 H   0  0  0  0  0  0  0  0  0  0  0  0
   -0.9783    1.6502    0.2654 H   0  0  0  0  0  0  0  0  0  0  0  0
   -2.0544    0.9309    1.5557 H   0  0  0  0  0  0  0  0  0  0  0  0
   -2.7575    1.8380    0.1582 H   0  0  0  0  0  0  0  0  0  0  0  0
  2  6  1  0  0  0  0
  2  5  1  0  0  0  0
  3  8  1  0  0  0  0
  4  2  1  0  0  0  0
  7 12  1  0  0  0  0
  7  3  1  0  0  0  0
  7 11  1  0  0  0  0
  9  3  1  0  0  0  0
 10  7  1  0  0  0  0
 11 14  1  0  0  0  0
 13 11  1  0  0  0  0
 15 11  1  0  0  0  0
M  END
$$$$
