Compound 077, distorted structure 04
 OpenBabel12112416303D

 10  6  0  0  0  0  0  0  0  0999 V2000
   -0.5078   -0.0003   -0.0231 *   0  0  0  0  0  0  0  0  0  0  0  0
    1.6964   -0.0585   -0.0270 *   0  0  0  0  0  0  0  0  0  0  0  0
   -1.4412   -1.7264   -0.0610 C   0  0  0  0  0  3  0  0  0  0  0  0
   -1.4545    1.6687   -0.0380 C   0  0  0  0  0  3  0  0  0  0  0  0
   -1.9124   -1.8561   -0.9402 H   0  0  0  0  0  0  0  0  0  0  0  0
   -2.1150   -1.8450    0.8687 H   0  0  0  0  0  0  0  0  0  0  0  0
   -0.6801   -2.5797    0.0592 H   0  0  0  0  0  0  0  0  0  0  0  0
   -1.9425    1.8998    0.9233 H   0  0  0  0  0  0  0  0  0  0  0  0
   -2.1442    1.8244   -0.7695 H   0  0  0  0  0  0  0  0  0  0  0  0
   -0.7576    2.5706   -0.0903 H   0  0  0  0  0  0  0  0  0  0  0  0
  3  7  1  0  0  0  0
  3  6  1  0  0  0  0
  4  8  1  0  0  0  0
  5  3  1  0  0  0  0
  9  4  1  0  0  0  0
 10  4  1  0  0  0  0
M  END
$$$$
