Compound 078, distorted structure 03
 OpenBabel12102416393D

 17 13  0  0  0  0  0  0  0  0999 V2000
   -1.0157   -0.0211   -0.0140 *   0  0  0  0  0  0  0  0  0  0  0  0
    0.8334    0.6335   -0.0353 C   0  0  0  0  0  3  0  0  0  0  0  0
   -2.5053    1.3314   -0.0049 C   0  0  0  0  0  3  0  0  0  0  0  0
   -1.3443   -1.9504   -0.0353 C   0  0  0  0  0  3  0  0  0  0  0  0
   -2.1207   -2.2273   -0.7545 H   0  0  0  0  0  0  0  0  0  0  0  0
   -1.8178   -2.2723    0.9488 H   0  0  0  0  0  0  0  0  0  0  0  0
   -0.4490   -2.5565   -0.2140 H   0  0  0  0  0  0  0  0  0  0  0  0
   -2.4683    1.9771    0.8791 H   0  0  0  0  0  0  0  0  0  0  0  0
   -3.4426    0.8379   -0.0096 H   0  0  0  0  0  0  0  0  0  0  0  0
   -2.4718    2.0218   -0.8168 H   0  0  0  0  0  0  0  0  0  0  0  0
    1.8547   -0.1641    0.0427 C   0  0  0  0  0  0  0  0  0  0  0  0
    3.3205    0.2308    0.0169 C   0  0  0  0  0  0  0  0  0  0  0  0
    3.4040    1.3096    0.0269 H   0  0  0  0  0  0  0  0  0  0  0  0
    3.8536   -0.1350   -0.9080 H   0  0  0  0  0  0  0  0  0  0  0  0
    3.8059   -0.1253    0.8525 H   0  0  0  0  0  0  0  0  0  0  0  0
    1.0458    1.7368   -0.0042 H   0  0  0  0  0  0  0  0  0  0  0  0
    1.7041   -1.2457   -0.0092 H   0  0  0  0  0  0  0  0  0  0  0  0
  2 16  1  0  0  0  0
  2 11  2  0  0  0  0
  3  8  1  0  0  0  0
  4  6  1  0  0  0  0
  5  4  1  0  0  0  0
  7  4  1  0  0  0  0
  9  3  1  0  0  0  0
 10  3  1  0  0  0  0
 12 13  1  0  0  0  0
 12 11  1  0  0  0  0
 12 15  1  0  0  0  0
 14 12  1  0  0  0  0
 17 11  1  0  0  0  0
M  END
$$$$
