Compound 078, distorted structure 05
 OpenBabel12112416303D

 17 13  0  0  0  0  0  0  0  0999 V2000
   -1.0080   -0.0165    0.0260 *   0  0  0  0  0  0  0  0  0  0  0  0
    0.8643    0.6789   -0.0333 C   0  0  0  0  0  3  0  0  0  0  0  0
   -2.4321    1.2871    0.0317 C   0  0  0  0  0  3  0  0  0  0  0  0
   -1.3433   -1.9020    0.0259 C   0  0  0  0  0  3  0  0  0  0  0  0
   -2.1227   -2.2114   -0.7538 H   0  0  0  0  0  0  0  0  0  0  0  0
   -1.7700   -2.2125    0.9035 H   0  0  0  0  0  0  0  0  0  0  0  0
   -0.5168   -2.4887   -0.2077 H   0  0  0  0  0  0  0  0  0  0  0  0
   -2.4671    1.9437    0.9531 H   0  0  0  0  0  0  0  0  0  0  0  0
   -3.5445    0.8514   -0.0176 H   0  0  0  0  0  0  0  0  0  0  0  0
   -2.4329    1.9871   -0.8566 H   0  0  0  0  0  0  0  0  0  0  0  0
    1.9310   -0.1747   -0.0626 C   0  0  0  0  0  0  0  0  0  0  0  0
    3.3482    0.2954   -0.0014 C   0  0  0  0  0  0  0  0  0  0  0  0
    3.3699    1.2987    0.0500 H   0  0  0  0  0  0  0  0  0  0  0  0
    3.8870   -0.1306   -0.8231 H   0  0  0  0  0  0  0  0  0  0  0  0
    3.8561   -0.1381    0.8684 H   0  0  0  0  0  0  0  0  0  0  0  0
    1.1089    1.6855    0.0109 H   0  0  0  0  0  0  0  0  0  0  0  0
    1.7606   -1.1998   -0.0138 H   0  0  0  0  0  0  0  0  0  0  0  0
  2 16  1  0  0  0  0
  3  8  1  0  0  0  0
  4  6  1  0  0  0  0
  5  4  1  0  0  0  0
  7  4  1  0  0  0  0
  9  3  1  0  0  0  0
 10  3  1  0  0  0  0
 11  2  2  0  0  0  0
 11 17  1  0  0  0  0
 11 12  1  0  0  0  0
 12 13  1  0  0  0  0
 12 15  1  0  0  0  0
 14 12  1  0  0  0  0
M  END
$$$$
