Compound 079, distorted structure 06
 OpenBabel12112416303D

 14  9  0  0  0  0  0  0  0  0999 V2000
   -0.4814    0.0483    0.0556 *   0  0  0  0  0  0  0  0  0  0  0  0
    1.6155    0.0245   -0.0615 *   0  0  0  0  0  0  0  0  0  0  0  0
   -1.0683   -0.5221   -1.6997 C   0  0  0  0  0  3  0  0  0  0  0  0
   -0.9463    1.7223    0.3155 C   0  0  0  0  0  3  0  0  0  0  0  0
   -1.0702   -1.1580    1.3954 C   0  0  0  0  0  3  0  0  0  0  0  0
   -0.6467    2.4407   -0.3481 H   0  0  0  0  0  0  0  0  0  0  0  0
   -0.5909    2.1203    1.2668 H   0  0  0  0  0  0  0  0  0  0  0  0
   -2.1350    1.8006    0.3277 H   0  0  0  0  0  0  0  0  0  0  0  0
   -2.0504   -1.2663    1.3226 H   0  0  0  0  0  0  0  0  0  0  0  0
   -0.6184   -0.8973    2.3761 H   0  0  0  0  0  0  0  0  0  0  0  0
   -0.6052   -2.1761    1.0914 H   0  0  0  0  0  0  0  0  0  0  0  0
   -2.1455   -0.5877   -1.7907 H   0  0  0  0  0  0  0  0  0  0  0  0
   -0.5845   -1.5730   -1.9562 H   0  0  0  0  0  0  0  0  0  0  0  0
   -0.6401    0.0980   -2.4994 H   0  0  0  0  0  0  0  0  0  0  0  0
  4  8  1  0  0  0  0
  4  7  1  0  0  0  0
  5 10  1  0  0  0  0
  6  4  1  0  0  0  0
  9  5  1  0  0  0  0
 11  5  1  0  0  0  0
 12  3  1  0  0  0  0
 13  3  1  0  0  0  0
 14  3  1  0  0  0  0
M  END
$$$$
