Compound 080, distorted structure 08
 OpenBabel12102416393D

 15 11  0  0  0  0  0  0  0  0999 V2000
   -1.0732    0.6677   -0.0094 C   0  0  0  0  0  2  0  0  0  0  0  0
    0.4901    0.0028    0.0442 *   0  0  0  0  0  0  0  0  0  0  0  0
    1.9804    1.1407    0.0835 C   0  0  0  0  0  3  0  0  0  0  0  0
    2.5676    0.8766    0.9701 H   0  0  0  0  0  0  0  0  0  0  0  0
    1.6377    2.2096   -0.0801 H   0  0  0  0  0  0  0  0  0  0  0  0
    2.6435    0.9896   -0.9447 H   0  0  0  0  0  0  0  0  0  0  0  0
    0.6909   -1.8980   -0.0364 C   0  0  0  0  0  3  0  0  0  0  0  0
   -0.1899   -2.3554   -0.0679 H   0  0  0  0  0  0  0  0  0  0  0  0
    1.3377   -2.0958    0.9137 H   0  0  0  0  0  0  0  0  0  0  0  0
    1.2788   -2.0274   -0.8802 H   0  0  0  0  0  0  0  0  0  0  0  0
   -2.5078    0.0365   -0.0870 C   0  0  0  0  0  0  0  0  0  0  0  0
   -1.2254    1.8726   -0.0265 H   0  0  0  0  0  0  0  0  0  0  0  0
   -2.3442   -1.1350   -0.0449 H   0  0  0  0  0  0  0  0  0  0  0  0
   -3.0667    0.2394   -0.8393 H   0  0  0  0  0  0  0  0  0  0  0  0
   -3.0455    0.1572    0.8956 H   0  0  0  0  0  0  0  0  0  0  0  0
  3  4  1  0  0  0  0
  5  3  1  0  0  0  0
  6  3  1  0  0  0  0
  7  9  1  0  0  0  0
  8  7  1  0  0  0  0
 10  7  1  0  0  0  0
 11 13  1  0  0  0  0
 11  1  1  0  0  0  0
 11 15  1  0  0  0  0
 12  1  1  0  0  0  0
 14 11  1  0  0  0  0
M  END
$$$$
