Compound 081, distorted structure 05
 OpenBabel12102416393D

 18  9  0  0  0  0  0  0  0  0999 V2000
   -1.5075   -0.0828   -0.6497 *   0  0  0  0  0  0  0  0  0  0  0  0
   -0.2918    0.1203    0.5301 O   0  0  0  0  0 15  0  0  0  0  0  0
    1.3733    0.0996    0.6603 *   0  0  0  0  0  0  0  0  0  0  0  0
    2.0337    1.5175   -0.1747 C   0  0  0  0  0  3  0  0  0  0  0  0
    2.0225   -1.4745    0.0261 C   0  0  0  0  0  3  0  0  0  0  0  0
    1.6165    0.2121    2.2254 H   0  0  0  0  0 15  0  0  0  0  0  0
    3.1002    1.6544   -0.0357 H   0  0  0  0  0  0  0  0  0  0  0  0
    1.6229    2.4596    0.0701 H   0  0  0  0  0  0  0  0  0  0  0  0
    1.8897    1.4716   -1.3384 H   0  0  0  0  0  0  0  0  0  0  0  0
    1.6049   -2.4487    0.5262 H   0  0  0  0  0  0  0  0  0  0  0  0
    3.0758   -1.5197    0.2964 H   0  0  0  0  0  0  0  0  0  0  0  0
    1.8651   -1.6700   -1.0608 H   0  0  0  0  0  0  0  0  0  0  0  0
   -3.1053    0.0364    0.1456 C   0  0  0  0  0  3  0  0  0  0  0  0
   -1.3637   -1.4389   -1.1891 H   0  0  0  0  0 15  0  0  0  0  0  0
   -1.2579    0.9548   -1.6457 H   0  0  0  0  0 15  0  0  0  0  0  0
   -3.2345    1.0381    0.6949 H   0  0  0  0  0  0  0  0  0  0  0  0
   -3.3671   -0.6097    0.9980 H   0  0  0  0  0  0  0  0  0  0  0  0
   -3.9785    0.0274   -0.5479 H   0  0  0  0  0  0  0  0  0  0  0  0
  4  7  1  0  0  0  0
  4  8  1  0  0  0  0
  5 11  1  0  0  0  0
  5 10  1  0  0  0  0
  9  4  1  0  0  0  0
 12  5  1  0  0  0  0
 13 16  1  0  0  0  0
 13 17  1  0  0  0  0
 18 13  1  0  0  0  0
M  END
$$$$
