Compound 081, distorted structure 07
 OpenBabel11072411483D

 18  9  0  0  0  0  0  0  0  0999 V2000
   -1.5639   -0.1710   -0.6952 *   0  0  0  0  0  0  0  0  0  0  0  0
   -0.3786   -0.0276    0.5015 O   0  0  0  0  0 15  0  0  0  0  0  0
    1.3368    0.1367    0.7051 *   0  0  0  0  0  0  0  0  0  0  0  0
    2.0263    1.5010   -0.2291 C   0  0  0  0  0  3  0  0  0  0  0  0
    2.0108   -1.4986   -0.0242 C   0  0  0  0  0  3  0  0  0  0  0  0
    1.6030    0.2080    2.1516 H   0  0  0  0  0 15  0  0  0  0  0  0
    3.0613    1.5141   -0.0358 H   0  0  0  0  0  0  0  0  0  0  0  0
    1.5433    2.4351    0.0907 H   0  0  0  0  0  0  0  0  0  0  0  0
    1.8908    1.4570   -1.2181 H   0  0  0  0  0  0  0  0  0  0  0  0
    1.5081   -2.3885    0.5859 H   0  0  0  0  0  0  0  0  0  0  0  0
    3.0794   -1.5647    0.1785 H   0  0  0  0  0  0  0  0  0  0  0  0
    1.7641   -1.5980   -1.0657 H   0  0  0  0  0  0  0  0  0  0  0  0
   -3.2010    0.1121    0.1636 C   0  0  0  0  0  3  0  0  0  0  0  0
   -1.2668   -1.3993   -1.2875 H   0  0  0  0  0 15  0  0  0  0  0  0
   -1.2186    0.9380   -1.7293 H   0  0  0  0  0 15  0  0  0  0  0  0
   -3.2642    1.0194    0.6755 H   0  0  0  0  0  0  0  0  0  0  0  0
   -3.2419   -0.6710    1.0029 H   0  0  0  0  0  0  0  0  0  0  0  0
   -4.0117   -0.0173   -0.4392 H   0  0  0  0  0  0  0  0  0  0  0  0
  4  7  1  0  0  0  0
  4  8  1  0  0  0  0
  5 11  1  0  0  0  0
  5 10  1  0  0  0  0
  9  4  1  0  0  0  0
 12  5  1  0  0  0  0
 13 16  1  0  0  0  0
 13 17  1  0  0  0  0
 18 13  1  0  0  0  0
M  END
$$$$
