Compound 081, distorted structure 06
 OpenBabel11072411483D

 18  9  0  0  0  0  0  0  0  0999 V2000
   -1.4283   -0.1044   -0.6348 *   0  0  0  0  0  0  0  0  0  0  0  0
   -0.3732    0.0317    0.6380 O   0  0  0  0  0 15  0  0  0  0  0  0
    1.3047    0.0718    0.6818 *   0  0  0  0  0  0  0  0  0  0  0  0
    2.0475    1.5564   -0.2069 C   0  0  0  0  0  3  0  0  0  0  0  0
    2.0399   -1.4616    0.1291 C   0  0  0  0  0  3  0  0  0  0  0  0
    1.6593    0.1823    2.1395 H   0  0  0  0  0 15  0  0  0  0  0  0
    3.0655    1.6625   -0.1253 H   0  0  0  0  0  0  0  0  0  0  0  0
    1.5220    2.4823    0.1107 H   0  0  0  0  0  0  0  0  0  0  0  0
    1.8069    1.4997   -1.3721 H   0  0  0  0  0  0  0  0  0  0  0  0
    1.5680   -2.3962    0.6455 H   0  0  0  0  0  0  0  0  0  0  0  0
    3.0453   -1.5595    0.2521 H   0  0  0  0  0  0  0  0  0  0  0  0
    1.8391   -1.6164   -0.9883 H   0  0  0  0  0  0  0  0  0  0  0  0
   -3.1321    0.1382    0.2037 C   0  0  0  0  0  3  0  0  0  0  0  0
   -1.4252   -1.3665   -1.3155 H   0  0  0  0  0 15  0  0  0  0  0  0
   -1.2624    0.9415   -1.7016 H   0  0  0  0  0 15  0  0  0  0  0  0
   -3.2775    1.1312    0.7161 H   0  0  0  0  0  0  0  0  0  0  0  0
   -3.2641   -0.6975    1.0141 H   0  0  0  0  0  0  0  0  0  0  0  0
   -4.0202    0.0126   -0.5765 H   0  0  0  0  0  0  0  0  0  0  0  0
  4  7  1  0  0  0  0
  4  8  1  0  0  0  0
  5 11  1  0  0  0  0
  5 10  1  0  0  0  0
  9  4  1  0  0  0  0
 12  5  1  0  0  0  0
 13 16  1  0  0  0  0
 13 17  1  0  0  0  0
 18 13  1  0  0  0  0
M  END
$$$$
