Compound 082, distorted structure 09
 OpenBabel12112416303D

 13 12  0  0  0  0  0  0  0  0999 V2000
   -0.2689   -0.7964    1.4230 O   0  0  0  0  0  0  0  0  0  0  0  0
   -0.3476    0.0518    0.3395 P   0  0  2  0  0  0  0  0  0  0  0  0
    1.0666    0.6027   -0.3238 O   0  0  0  0  0  0  0  0  0  0  0  0
   -1.3886    1.6310    0.3133 C   0  0  0  0  0  0  0  0  0  0  0  0
   -0.8195   -0.6587   -1.0305 O   0  0  0  0  0  0  0  0  0  0  0  0
   -0.8812    2.1290    0.9951 H   0  0  0  0  0  0  0  0  0  0  0  0
   -2.2598    1.3200    0.5495 H   0  0  0  0  0  0  0  0  0  0  0  0
   -1.2233    1.9405   -0.6973 H   0  0  0  0  0  0  0  0  0  0  0  0
   -1.1794   -1.5839   -0.7830 H   0  0  0  0  0  0  0  0  0  0  0  0
    2.2279   -0.3652   -0.3305 C   0  0  0  0  0  0  0  0  0  0  0  0
    3.0432    0.4116   -0.5587 H   0  0  0  0  0  0  0  0  0  0  0  0
    2.1715   -1.0715   -1.2249 H   0  0  0  0  0  0  0  0  0  0  0  0
    2.2606   -0.7177    0.6152 H   0  0  0  0  0  0  0  0  0  0  0  0
  2  1  2  1  0  0  0
  3  2  1  0  0  0  0
  4  2  1  0  0  0  0
  4  7  1  0  0  0  0
  4  6  1  0  0  0  0
  5  9  1  0  0  0  0
  5  2  1  0  0  0  0
  8  4  1  0  0  0  0
 10  3  1  0  0  0  0
 10 13  1  0  0  0  0
 11 10  1  0  0  0  0
 12 10  1  0  0  0  0
M  END
$$$$
