Compound 084, distorted structure 06
 OpenBabel12102416393D

 15 14  0  0  0  0  0  0  0  0999 V2000
   -1.1219    0.5642   -0.4450 P   0  0  0  0  0  0  0  0  0  0  0  0
    0.7326   -0.1895    0.5260 P   0  0  0  0  0  0  0  0  0  0  0  0
   -1.1392    1.7101    0.5078 H   0  0  0  0  0  0  0  0  0  0  0  0
   -2.3671   -0.5197    0.4752 C   0  0  0  0  0  0  0  0  0  0  0  0
    1.8852    1.0815   -0.0933 C   0  0  0  0  0  0  0  0  0  0  0  0
    1.2213   -1.5401   -0.6950 C   0  0  0  0  0  0  0  0  0  0  0  0
   -2.1678   -0.5518    1.4769 H   0  0  0  0  0  0  0  0  0  0  0  0
   -2.3208   -1.4513    0.0493 H   0  0  0  0  0  0  0  0  0  0  0  0
   -3.3855   -0.1616    0.1691 H   0  0  0  0  0  0  0  0  0  0  0  0
    1.7367    1.9787    0.4212 H   0  0  0  0  0  0  0  0  0  0  0  0
    1.8815    1.2307   -1.0719 H   0  0  0  0  0  0  0  0  0  0  0  0
    2.8978    0.8046    0.1194 H   0  0  0  0  0  0  0  0  0  0  0  0
    2.2046   -2.0285   -0.4101 H   0  0  0  0  0  0  0  0  0  0  0  0
    1.1569   -1.2568   -1.6905 H   0  0  0  0  0  0  0  0  0  0  0  0
    0.3747   -2.3763   -0.5082 H   0  0  0  0  0  0  0  0  0  0  0  0
  1  4  1  0  0  0  0
  1  3  1  0  0  0  0
  1  2  1  0  0  0  0
  4  7  1  0  0  0  0
  5 12  1  0  0  0  0
  5 10  1  0  0  0  0
  5  2  1  0  0  0  0
  6 15  1  0  0  0  0
  6 13  1  0  0  0  0
  6  2  1  0  0  0  0
  8  4  1  0  0  0  0
  9  4  1  0  0  0  0
 11  5  1  0  0  0  0
 14  6  1  0  0  0  0
M  END
$$$$
