Compound 085, distorted structure 04
 OpenBabel12112416303D

 16 15  0  0  0  0  0  0  0  0999 V2000
   -0.4405    0.0157   -0.4967 P   0  0  0  0  0  0  0  0  0  0  0  0
    0.9849   -0.6877    0.3636 C   0  0  0  0  0  0  0  0  0  0  0  0
   -0.5878    1.6684    0.3164 C   0  0  0  0  0  0  0  0  0  0  0  0
   -1.7726   -0.9150    0.3624 C   0  0  0  0  0  0  0  0  0  0  0  0
   -1.6754   -2.0327    0.0905 H   0  0  0  0  0  0  0  0  0  0  0  0
   -2.7807   -0.6330   -0.0108 H   0  0  0  0  0  0  0  0  0  0  0  0
   -1.7315   -0.8722    1.4093 H   0  0  0  0  0  0  0  0  0  0  0  0
   -1.5616    2.0802    0.0275 H   0  0  0  0  0  0  0  0  0  0  0  0
    0.1423    2.3232    0.0826 H   0  0  0  0  0  0  0  0  0  0  0  0
   -0.5773    1.4891    1.4722 H   0  0  0  0  0  0  0  0  0  0  0  0
    2.3785   -0.0410    0.0085 C   0  0  0  0  0  0  0  0  0  0  0  0
    1.0727   -1.8165    0.1090 H   0  0  0  0  0  0  0  0  0  0  0  0
    0.8510   -0.6528    1.4646 H   0  0  0  0  0  0  0  0  0  0  0  0
    3.2296   -0.5175    0.4814 H   0  0  0  0  0  0  0  0  0  0  0  0
    2.3669    1.0810    0.3176 H   0  0  0  0  0  0  0  0  0  0  0  0
    2.5509   -0.0181   -1.1000 H   0  0  0  0  0  0  0  0  0  0  0  0
  1  3  1  0  0  0  0
  1  4  1  0  0  0  0
  1  2  1  0  0  0  0
  2 13  1  0  0  0  0
  3 10  1  0  0  0  0
  4  7  1  0  0  0  0
  5  4  1  0  0  0  0
  6  4  1  0  0  0  0
  8  3  1  0  0  0  0
  9  3  1  0  0  0  0
 11 15  1  0  0  0  0
 11  2  1  0  0  0  0
 11 14  1  0  0  0  0
 12  2  1  0  0  0  0
 16 11  1  0  0  0  0
M  END
$$$$
