Compound 085, distorted structure 03
 OpenBabel12102416393D

 16 15  0  0  0  0  0  0  0  0999 V2000
   -0.4435   -0.0522   -0.5172 P   0  0  0  0  0  0  0  0  0  0  0  0
    0.9935   -0.7527    0.3775 C   0  0  0  0  0  0  0  0  0  0  0  0
   -0.6297    1.6630    0.3963 C   0  0  0  0  0  0  0  0  0  0  0  0
   -1.7802   -0.9352    0.3854 C   0  0  0  0  0  0  0  0  0  0  0  0
   -1.6710   -2.0276    0.0694 H   0  0  0  0  0  0  0  0  0  0  0  0
   -2.8165   -0.6317    0.0101 H   0  0  0  0  0  0  0  0  0  0  0  0
   -1.6567   -0.8618    1.4684 H   0  0  0  0  0  0  0  0  0  0  0  0
   -1.6047    2.0244    0.0478 H   0  0  0  0  0  0  0  0  0  0  0  0
    0.0984    2.3359    0.0090 H   0  0  0  0  0  0  0  0  0  0  0  0
   -0.5627    1.5095    1.4627 H   0  0  0  0  0  0  0  0  0  0  0  0
    2.3300   -0.0134    0.0197 C   0  0  0  0  0  0  0  0  0  0  0  0
    1.0743   -1.8135    0.1803 H   0  0  0  0  0  0  0  0  0  0  0  0
    0.8724   -0.6290    1.4106 H   0  0  0  0  0  0  0  0  0  0  0  0
    3.1465   -0.4909    0.5058 H   0  0  0  0  0  0  0  0  0  0  0  0
    2.3641    1.0584    0.2937 H   0  0  0  0  0  0  0  0  0  0  0  0
    2.5500   -0.0558   -1.0433 H   0  0  0  0  0  0  0  0  0  0  0  0
  1  2  1  0  0  0  0
  1  4  1  0  0  0  0
  1  3  1  0  0  0  0
  2 13  1  0  0  0  0
  3 10  1  0  0  0  0
  4  7  1  0  0  0  0
  5  4  1  0  0  0  0
  6  4  1  0  0  0  0
  8  3  1  0  0  0  0
  9  3  1  0  0  0  0
 11 15  1  0  0  0  0
 11  2  1  0  0  0  0
 11 14  1  0  0  0  0
 12  2  1  0  0  0  0
 16 11  1  0  0  0  0
M  END
$$$$
