Compound 086, distorted structure 09
 OpenBabel12112416303D

  9  9  0  0  0  0  0  0  0  0999 V2000
    0.1190   -1.2001    0.0881 C   0  0  0  0  0  0  0  0  0  0  0  0
    1.2740   -0.6422   -0.0112 C   0  0  0  0  0  0  0  0  0  0  0  0
    1.2257    0.6625   -0.0165 C   0  0  0  0  0  0  0  0  0  0  0  0
    0.0488    1.3325   -0.1071 C   0  0  0  0  0  0  0  0  0  0  0  0
   -1.2595    0.0925   -0.0545 S   0  0  0  0  0  0  0  0  0  0  0  0
   -0.2815   -2.3779    0.0882 H   0  0  0  0  0  0  0  0  0  0  0  0
    2.1387   -1.3821    0.0541 H   0  0  0  0  0  0  0  0  0  0  0  0
    2.2664    1.2310   -0.1093 H   0  0  0  0  0  0  0  0  0  0  0  0
   -0.3102    2.2002   -0.0728 H   0  0  0  0  0  0  0  0  0  0  0  0
  1  6  1  0  0  0  0
  2  7  1  0  0  0  0
  2  1  2  0  0  0  0
  3  2  1  0  0  0  0
  4  9  1  0  0  0  0
  4  5  1  0  0  0  0
  4  3  2  0  0  0  0
  5  1  1  0  0  0  0
  8  3  1  0  0  0  0
M  END
$$$$
