Compound 086, distorted structure 07
 OpenBabel12112416303D

  9  9  0  0  0  0  0  0  0  0999 V2000
    0.0304   -1.2521   -0.0776 C   0  0  0  0  0  0  0  0  0  0  0  0
    1.3837   -0.6970    0.0292 C   0  0  0  0  0  0  0  0  0  0  0  0
    1.3066    0.7124   -0.0820 C   0  0  0  0  0  0  0  0  0  0  0  0
    0.0400    1.1646   -0.0614 C   0  0  0  0  0  0  0  0  0  0  0  0
   -1.0670    0.0218   -0.0202 S   0  0  0  0  0  0  0  0  0  0  0  0
   -0.2506   -2.1737    0.1076 H   0  0  0  0  0  0  0  0  0  0  0  0
    2.2587   -1.3305   -0.0923 H   0  0  0  0  0  0  0  0  0  0  0  0
    2.2083    1.3111   -0.0240 H   0  0  0  0  0  0  0  0  0  0  0  0
   -0.3071    2.3856   -0.0521 H   0  0  0  0  0  0  0  0  0  0  0  0
  1  5  1  0  0  0  0
  1  2  2  0  0  0  0
  1  6  1  0  0  0  0
  3  4  2  0  0  0  0
  3  8  1  0  0  0  0
  3  2  1  0  0  0  0
  4  9  1  0  0  0  0
  4  5  1  0  0  0  0
  7  2  1  0  0  0  0
M  END
$$$$
