Compound 086, distorted structure 03
 OpenBabel12112416303D

  9  9  0  0  0  0  0  0  0  0999 V2000
    0.0820   -1.2802   -0.0351 C   0  0  0  0  0  0  0  0  0  0  0  0
    1.3031   -0.7059    0.0111 C   0  0  0  0  0  0  0  0  0  0  0  0
    1.2627    0.6808   -0.0244 C   0  0  0  0  0  0  0  0  0  0  0  0
    0.0369    1.2919   -0.0438 C   0  0  0  0  0  0  0  0  0  0  0  0
   -1.1805   -0.0113   -0.0342 S   0  0  0  0  0  0  0  0  0  0  0  0
   -0.2753   -2.2330    0.0483 H   0  0  0  0  0  0  0  0  0  0  0  0
    2.2114   -1.2714   -0.0098 H   0  0  0  0  0  0  0  0  0  0  0  0
    2.1650    1.3300   -0.0250 H   0  0  0  0  0  0  0  0  0  0  0  0
   -0.1960    2.2827   -0.0204 H   0  0  0  0  0  0  0  0  0  0  0  0
  1  5  1  0  0  0  0
  1  2  2  0  0  0  0
  1  6  1  0  0  0  0
  3  2  1  0  0  0  0
  4  5  1  0  0  0  0
  4  3  2  0  0  0  0
  4  9  1  0  0  0  0
  7  2  1  0  0  0  0
  8  3  1  0  0  0  0
M  END
$$$$
