Compound 086, distorted structure 02
 OpenBabel12102416393D

  9  9  0  0  0  0  0  0  0  0999 V2000
    0.0622   -1.2223    0.0216 C   0  0  0  0  0  0  0  0  0  0  0  0
    1.2918   -0.6841    0.0093 C   0  0  0  0  0  0  0  0  0  0  0  0
    1.3016    0.6904   -0.0124 C   0  0  0  0  0  0  0  0  0  0  0  0
    0.0620    1.2733   -0.0260 C   0  0  0  0  0  0  0  0  0  0  0  0
   -1.1520    0.0273    0.0137 S   0  0  0  0  0  0  0  0  0  0  0  0
   -0.2406   -2.3028    0.0060 H   0  0  0  0  0  0  0  0  0  0  0  0
    2.1977   -1.3169   -0.0146 H   0  0  0  0  0  0  0  0  0  0  0  0
    2.1952    1.3162    0.0311 H   0  0  0  0  0  0  0  0  0  0  0  0
   -0.2108    2.2904   -0.0146 H   0  0  0  0  0  0  0  0  0  0  0  0
  2  1  2  0  0  0  0
  3  2  1  0  0  0  0
  3  8  1  0  0  0  0
  4  9  1  0  0  0  0
  4  3  2  0  0  0  0
  4  5  1  0  0  0  0
  5  1  1  0  0  0  0
  6  1  1  0  0  0  0
  7  2  1  0  0  0  0
M  END
$$$$
