Compound 086, distorted structure 04
 OpenBabel12102416393D

  9  9  0  0  0  0  0  0  0  0999 V2000
    0.0164   -1.1812    0.0040 C   0  0  0  0  0  0  0  0  0  0  0  0
    1.3093   -0.6934   -0.0001 C   0  0  0  0  0  0  0  0  0  0  0  0
    1.3638    0.6852    0.0143 C   0  0  0  0  0  0  0  0  0  0  0  0
    0.0477    1.2493   -0.0144 C   0  0  0  0  0  0  0  0  0  0  0  0
   -1.0899   -0.0171    0.0226 S   0  0  0  0  0  0  0  0  0  0  0  0
   -0.1835   -2.2357   -0.0327 H   0  0  0  0  0  0  0  0  0  0  0  0
    2.1366   -1.3215    0.0413 H   0  0  0  0  0  0  0  0  0  0  0  0
    2.2809    1.3042   -0.0583 H   0  0  0  0  0  0  0  0  0  0  0  0
   -0.1676    2.2298    0.0415 H   0  0  0  0  0  0  0  0  0  0  0  0
  1  5  1  0  0  0  0
  2  1  2  0  0  0  0
  2  3  1  0  0  0  0
  2  7  1  0  0  0  0
  4  3  2  0  0  0  0
  4  5  1  0  0  0  0
  4  9  1  0  0  0  0
  6  1  1  0  0  0  0
  8  3  1  0  0  0  0
M  END
$$$$
