Compound 087, distorted structure 03
 OpenBabel12102416393D

 11 11  0  0  0  0  0  0  0  0999 V2000
    1.5493   -0.4981   -0.0411 C   0  0  0  0  0  0  0  0  0  0  0  0
    0.5097   -1.6611   -0.2507 C   0  0  0  0  0  0  0  0  0  0  0  0
   -0.8638   -1.2494    0.3568 C   0  0  0  0  0  0  0  0  0  0  0  0
    0.8345   -2.5407    0.1896 H   0  0  0  0  0  0  0  0  0  0  0  0
    0.2803   -1.8439   -1.2709 H   0  0  0  0  0  0  0  0  0  0  0  0
   -1.2165    0.4595   -0.1929 S   0  0  0  0  0  0  0  0  0  0  0  0
   -0.7793   -1.2114    1.5338 H   0  0  0  0  0  0  0  0  0  0  0  0
   -1.7105   -1.9290    0.0924 H   0  0  0  0  0  0  0  0  0  0  0  0
    0.7280    1.1420    0.3451 S   0  0  0  0  0  0  0  0  0  0  0  0
    2.1612   -0.4352   -0.9077 H   0  0  0  0  0  0  0  0  0  0  0  0
    2.1891   -0.7705    0.8087 H   0  0  0  0  0  0  0  0  0  0  0  0
  1  9  1  0  0  0  0
  1 11  1  0  0  0  0
  2  1  1  0  0  0  0
  2  4  1  0  0  0  0
  2  3  1  0  0  0  0
  3  7  1  0  0  0  0
  5  2  1  0  0  0  0
  6  9  1  0  0  0  0
  6  3  1  0  0  0  0
  8  3  1  0  0  0  0
 10  1  1  0  0  0  0
M  END
$$$$
