Compound 087, distorted structure 01
 OpenBabel12102416393D

 11 11  0  0  0  0  0  0  0  0999 V2000
    1.5359   -0.5095   -0.0480 C   0  0  0  0  0  0  0  0  0  0  0  0
    0.4769   -1.6189   -0.2338 C   0  0  0  0  0  0  0  0  0  0  0  0
   -0.8805   -1.2142    0.3732 C   0  0  0  0  0  0  0  0  0  0  0  0
    0.8405   -2.5850    0.2302 H   0  0  0  0  0  0  0  0  0  0  0  0
    0.3067   -1.7802   -1.3182 H   0  0  0  0  0  0  0  0  0  0  0  0
   -1.2226    0.4486   -0.2116 S   0  0  0  0  0  0  0  0  0  0  0  0
   -0.8148   -1.2151    1.4807 H   0  0  0  0  0  0  0  0  0  0  0  0
   -1.6800   -1.8893    0.0769 H   0  0  0  0  0  0  0  0  0  0  0  0
    0.6941    1.1147    0.3460 S   0  0  0  0  0  0  0  0  0  0  0  0
    2.1371   -0.4003   -0.9538 H   0  0  0  0  0  0  0  0  0  0  0  0
    2.1920   -0.7150    0.7859 H   0  0  0  0  0  0  0  0  0  0  0  0
  1  9  1  0  0  0  0
  1 11  1  0  0  0  0
  2  1  1  0  0  0  0
  2  4  1  0  0  0  0
  2  3  1  0  0  0  0
  3  7  1  0  0  0  0
  5  2  1  0  0  0  0
  6  9  1  0  0  0  0
  6  3  1  0  0  0  0
  8  3  1  0  0  0  0
 10  1  1  0  0  0  0
M  END
$$$$
