Compound 087, distorted structure 07
 OpenBabel12112416303D

 11 11  0  0  0  0  0  0  0  0999 V2000
    1.5335   -0.6551   -0.0494 C   0  0  0  0  0  0  0  0  0  0  0  0
    0.4241   -1.5359   -0.1921 C   0  0  0  0  0  0  0  0  0  0  0  0
   -0.8183   -1.3285    0.3533 C   0  0  0  0  0  0  0  0  0  0  0  0
    0.7120   -2.5180    0.2566 H   0  0  0  0  0  0  0  0  0  0  0  0
    0.4599   -1.6983   -1.2247 H   0  0  0  0  0  0  0  0  0  0  0  0
   -1.2079    0.5436   -0.0814 S   0  0  0  0  0  0  0  0  0  0  0  0
   -0.6800   -1.2680    1.4953 H   0  0  0  0  0  0  0  0  0  0  0  0
   -1.7157   -1.9704    0.0646 H   0  0  0  0  0  0  0  0  0  0  0  0
    0.6095    1.1141    0.4768 S   0  0  0  0  0  0  0  0  0  0  0  0
    2.1304   -0.3528   -0.9131 H   0  0  0  0  0  0  0  0  0  0  0  0
    2.3180   -0.6699    0.8237 H   0  0  0  0  0  0  0  0  0  0  0  0
  1  9  1  0  0  0  0
  1 11  1  0  0  0  0
  2  1  1  0  0  0  0
  2  4  1  0  0  0  0
  2  3  1  0  0  0  0
  3  7  1  0  0  0  0
  5  2  1  0  0  0  0
  6  3  1  0  0  0  0
  6  9  1  0  0  0  0
  8  3  1  0  0  0  0
 10  1  1  0  0  0  0
M  END
$$$$
