Compound 087, distorted structure 06
 OpenBabel12112416303D

 11 11  0  0  0  0  0  0  0  0999 V2000
    1.4611   -0.4926    0.0222 C   0  0  0  0  0  0  0  0  0  0  0  0
    0.4865   -1.7287   -0.3311 C   0  0  0  0  0  0  0  0  0  0  0  0
   -0.9286   -1.1575    0.2987 C   0  0  0  0  0  0  0  0  0  0  0  0
    0.7757   -2.5942    0.2551 H   0  0  0  0  0  0  0  0  0  0  0  0
    0.2164   -1.8278   -1.4021 H   0  0  0  0  0  0  0  0  0  0  0  0
   -1.1448    0.5047   -0.1736 S   0  0  0  0  0  0  0  0  0  0  0  0
   -0.7752   -1.2990    1.4761 H   0  0  0  0  0  0  0  0  0  0  0  0
   -1.7419   -1.9521    0.1322 H   0  0  0  0  0  0  0  0  0  0  0  0
    0.7225    1.0673    0.3776 S   0  0  0  0  0  0  0  0  0  0  0  0
    2.2359   -0.3312   -0.8554 H   0  0  0  0  0  0  0  0  0  0  0  0
    2.1742   -0.8096    0.7784 H   0  0  0  0  0  0  0  0  0  0  0  0
  1  9  1  0  0  0  0
  1 11  1  0  0  0  0
  2  1  1  0  0  0  0
  2  4  1  0  0  0  0
  2  3  1  0  0  0  0
  3  7  1  0  0  0  0
  5  2  1  0  0  0  0
  6  3  1  0  0  0  0
  6  9  1  0  0  0  0
  8  3  1  0  0  0  0
 10  1  1  0  0  0  0
M  END
$$$$
