Compound 087 optimized with r2SCAN-3c
 OpenBabel12102416393D

 11 11  0  0  0  0  0  0  0  0999 V2000
    1.5370   -0.5239   -0.0455 C   0  0  0  0  0  0  0  0  0  0  0  0
    0.4762   -1.6269   -0.2325 C   0  0  0  0  0  0  0  0  0  0  0  0
   -0.8599   -1.2267    0.3924 C   0  0  0  0  0  0  0  0  0  0  0  0
    0.8335   -2.5649    0.2116 H   0  0  0  0  0  0  0  0  0  0  0  0
    0.3216   -1.8007   -1.3013 H   0  0  0  0  0  0  0  0  0  0  0  0
   -1.2108    0.4695   -0.2170 S   0  0  0  0  0  0  0  0  0  0  0  0
   -0.8177   -1.2156    1.4868 H   0  0  0  0  0  0  0  0  0  0  0  0
   -1.6748   -1.8810    0.0633 H   0  0  0  0  0  0  0  0  0  0  0  0
    0.7084    1.0946    0.3650 S   0  0  0  0  0  0  0  0  0  0  0  0
    2.1456   -0.4100   -0.9463 H   0  0  0  0  0  0  0  0  0  0  0  0
    2.1952   -0.7330    0.8031 H   0  0  0  0  0  0  0  0  0  0  0  0
  1  9  1  0  0  0  0
  1 11  1  0  0  0  0
  2  1  1  0  0  0  0
  2  4  1  0  0  0  0
  2  3  1  0  0  0  0
  3  7  1  0  0  0  0
  5  2  1  0  0  0  0
  6  9  1  0  0  0  0
  6  3  1  0  0  0  0
  8  3  1  0  0  0  0
 10  1  1  0  0  0  0
M  END
$$$$
