Compound 088, distorted structure 09
 OpenBabel12112416303D

 12 11  0  0  0  0  0  0  0  0999 V2000
    2.4819    0.0363   -0.0152 C   0  0  0  0  0  0  0  0  0  0  0  0
    1.1885   -0.5334   -0.0757 C   0  0  0  0  0  0  0  0  0  0  0  0
    2.7581    0.7226   -0.7851 H   0  0  0  0  0  0  0  0  0  0  0  0
    3.3225   -0.6586    0.1714 H   0  0  0  0  0  0  0  0  0  0  0  0
    2.7434    0.7229    0.7900 H   0  0  0  0  0  0  0  0  0  0  0  0
    0.1036    0.6846   -0.1601 C   0  0  0  0  0  0  0  0  0  0  0  0
    1.0689   -1.0481    1.0282 H   0  0  0  0  0  0  0  0  0  0  0  0
    0.9434   -1.1154   -0.7565 H   0  0  0  0  0  0  0  0  0  0  0  0
    0.1658    1.2439    0.8494 H   0  0  0  0  0  0  0  0  0  0  0  0
   -1.6608   -0.0790    0.1418 S   0  0  0  0  0  0  0  0  0  0  0  0
    0.1499    1.1548   -1.0205 H   0  0  0  0  0  0  0  0  0  0  0  0
   -1.7546   -0.7663   -1.0149 H   0  0  0  0  0  0  0  0  0  0  0  0
  1  4  1  0  0  0  0
  1  5  1  0  0  0  0
  2  1  1  0  0  0  0
  2  7  1  0  0  0  0
  3  1  1  0  0  0  0
  6  2  1  0  0  0  0
  6 10  1  0  0  0  0
  6  9  1  0  0  0  0
  8  2  1  0  0  0  0
 11  6  1  0  0  0  0
 12 10  1  0  0  0  0
M  END
$$$$
