Compound 089, distorted structure 06
 OpenBabel12102416393D

 12 11  0  0  0  0  0  0  0  0999 V2000
   -1.1873    1.3763    0.2025 C   0  0  0  0  0  0  0  0  0  0  0  0
   -0.5279    0.0967   -0.4422 C   0  0  0  0  0  0  0  0  0  0  0  0
   -2.3129    1.2797   -0.0051 H   0  0  0  0  0  0  0  0  0  0  0  0
   -0.7671    2.1670   -0.1707 H   0  0  0  0  0  0  0  0  0  0  0  0
   -1.0428    1.3327    1.3673 H   0  0  0  0  0  0  0  0  0  0  0  0
   -1.0529   -1.2064    0.0338 C   0  0  0  0  0  0  0  0  0  0  0  0
    1.2169    0.2740   -0.0593 S   0  0  0  0  0  0  0  0  0  0  0  0
   -0.7692    0.2027   -1.4983 H   0  0  0  0  0  0  0  0  0  0  0  0
   -2.1451   -1.3604   -0.1196 H   0  0  0  0  0  0  0  0  0  0  0  0
   -0.9876   -1.1947    1.1907 H   0  0  0  0  0  0  0  0  0  0  0  0
   -0.4717   -2.1084   -0.3411 H   0  0  0  0  0  0  0  0  0  0  0  0
    1.7428   -0.8733   -0.8688 H   0  0  0  0  0  0  0  0  0  0  0  0
  1  5  1  0  0  0  0
  2  7  1  0  0  0  0
  2  6  1  0  0  0  0
  2  1  1  0  0  0  0
  3  1  1  0  0  0  0
  4  1  1  0  0  0  0
  6 10  1  0  0  0  0
  8  2  1  0  0  0  0
  9  6  1  0  0  0  0
 11  6  1  0  0  0  0
 12  7  1  0  0  0  0
M  END
$$$$
