Compound 089, distorted structure 05
 OpenBabel12102416393D

 12 11  0  0  0  0  0  0  0  0999 V2000
   -1.2209    1.3635    0.2334 C   0  0  0  0  0  0  0  0  0  0  0  0
   -0.5788    0.0617   -0.3794 C   0  0  0  0  0  0  0  0  0  0  0  0
   -2.2745    1.2475   -0.0100 H   0  0  0  0  0  0  0  0  0  0  0  0
   -0.7866    2.1928   -0.1356 H   0  0  0  0  0  0  0  0  0  0  0  0
   -1.1273    1.2474    1.2581 H   0  0  0  0  0  0  0  0  0  0  0  0
   -1.0359   -1.2007    0.1333 C   0  0  0  0  0  0  0  0  0  0  0  0
    1.3456    0.3321   -0.1273 S   0  0  0  0  0  0  0  0  0  0  0  0
   -0.6476    0.2210   -1.5737 H   0  0  0  0  0  0  0  0  0  0  0  0
   -2.1653   -1.3483   -0.0846 H   0  0  0  0  0  0  0  0  0  0  0  0
   -0.9500   -1.2224    1.2288 H   0  0  0  0  0  0  0  0  0  0  0  0
   -0.5424   -2.1395   -0.3398 H   0  0  0  0  0  0  0  0  0  0  0  0
    1.6804   -0.8539   -0.7060 H   0  0  0  0  0  0  0  0  0  0  0  0
  1  5  1  0  0  0  0
  2  7  1  0  0  0  0
  2  6  1  0  0  0  0
  2  1  1  0  0  0  0
  3  1  1  0  0  0  0
  4  1  1  0  0  0  0
  6 10  1  0  0  0  0
  8  2  1  0  0  0  0
  9  6  1  0  0  0  0
 11  6  1  0  0  0  0
 12  7  1  0  0  0  0
M  END
$$$$
