Compound 089, distorted structure 03
 OpenBabel12102416393D

 12 11  0  0  0  0  0  0  0  0999 V2000
   -1.2564    1.2862    0.1941 C   0  0  0  0  0  0  0  0  0  0  0  0
   -0.5940    0.0490   -0.4371 C   0  0  0  0  0  0  0  0  0  0  0  0
   -2.3325    1.2861   -0.0364 H   0  0  0  0  0  0  0  0  0  0  0  0
   -0.8928    2.2132   -0.2549 H   0  0  0  0  0  0  0  0  0  0  0  0
   -1.0725    1.2755    1.2847 H   0  0  0  0  0  0  0  0  0  0  0  0
   -1.0194   -1.2691    0.0590 C   0  0  0  0  0  0  0  0  0  0  0  0
    1.3076    0.3613   -0.0973 S   0  0  0  0  0  0  0  0  0  0  0  0
   -0.7293    0.1417   -1.5418 H   0  0  0  0  0  0  0  0  0  0  0  0
   -2.0926   -1.2732   -0.1209 H   0  0  0  0  0  0  0  0  0  0  0  0
   -0.8820   -1.3541    1.1113 H   0  0  0  0  0  0  0  0  0  0  0  0
   -0.5674   -2.1215   -0.3492 H   0  0  0  0  0  0  0  0  0  0  0  0
    1.7158   -0.8582   -0.7523 H   0  0  0  0  0  0  0  0  0  0  0  0
  1  5  1  0  0  0  0
  2  7  1  0  0  0  0
  2  6  1  0  0  0  0
  2  1  1  0  0  0  0
  3  1  1  0  0  0  0
  4  1  1  0  0  0  0
  6 10  1  0  0  0  0
  8  2  1  0  0  0  0
  9  6  1  0  0  0  0
 11  6  1  0  0  0  0
 12  7  1  0  0  0  0
M  END
$$$$
