Compound 089, distorted structure 02
 OpenBabel12112416303D

 12 11  0  0  0  0  0  0  0  0999 V2000
   -1.2177    1.2952    0.1832 C   0  0  0  0  0  0  0  0  0  0  0  0
   -0.5148    0.1385   -0.4535 C   0  0  0  0  0  0  0  0  0  0  0  0
   -2.3295    1.2549   -0.0121 H   0  0  0  0  0  0  0  0  0  0  0  0
   -0.8400    2.2482   -0.2062 H   0  0  0  0  0  0  0  0  0  0  0  0
   -1.0649    1.2833    1.3077 H   0  0  0  0  0  0  0  0  0  0  0  0
   -1.0348   -1.2504    0.0803 C   0  0  0  0  0  0  0  0  0  0  0  0
    1.2785    0.3115   -0.0946 S   0  0  0  0  0  0  0  0  0  0  0  0
   -0.6618    0.1359   -1.5093 H   0  0  0  0  0  0  0  0  0  0  0  0
   -2.1648   -1.2896   -0.1302 H   0  0  0  0  0  0  0  0  0  0  0  0
   -0.8979   -1.2635    1.1708 H   0  0  0  0  0  0  0  0  0  0  0  0
   -0.5334   -2.0991   -0.3876 H   0  0  0  0  0  0  0  0  0  0  0  0
    1.6807   -0.7904   -0.7579 H   0  0  0  0  0  0  0  0  0  0  0  0
  1  5  1  0  0  0  0
  2  7  1  0  0  0  0
  2  6  1  0  0  0  0
  2  1  1  0  0  0  0
  3  1  1  0  0  0  0
  4  1  1  0  0  0  0
  6 10  1  0  0  0  0
  8  2  1  0  0  0  0
  9  6  1  0  0  0  0
 11  6  1  0  0  0  0
 12  7  1  0  0  0  0
M  END
$$$$
