Compound 089, distorted structure 09
 OpenBabel12112416303D

 12 11  0  0  0  0  0  0  0  0999 V2000
   -1.2610    1.2276    0.1683 C   0  0  0  0  0  0  0  0  0  0  0  0
   -0.6262    0.0673   -0.3711 C   0  0  0  0  0  0  0  0  0  0  0  0
   -2.2780    1.2172   -0.0962 H   0  0  0  0  0  0  0  0  0  0  0  0
   -0.8006    2.3771   -0.2026 H   0  0  0  0  0  0  0  0  0  0  0  0
   -1.1256    1.4034    1.2429 H   0  0  0  0  0  0  0  0  0  0  0  0
   -1.1061   -1.1056    0.1246 C   0  0  0  0  0  0  0  0  0  0  0  0
    1.2511    0.2703   -0.1645 S   0  0  0  0  0  0  0  0  0  0  0  0
   -0.6465    0.2619   -1.6483 H   0  0  0  0  0  0  0  0  0  0  0  0
   -2.1780   -1.4084   -0.1444 H   0  0  0  0  0  0  0  0  0  0  0  0
   -0.9019   -1.4021    1.2844 H   0  0  0  0  0  0  0  0  0  0  0  0
   -0.6582   -1.9735   -0.2866 H   0  0  0  0  0  0  0  0  0  0  0  0
    1.5962   -0.9434   -0.7791 H   0  0  0  0  0  0  0  0  0  0  0  0
  1  5  1  0  0  0  0
  2  7  1  0  0  0  0
  2  6  1  0  0  0  0
  2  1  1  0  0  0  0
  3  1  1  0  0  0  0
  4  1  1  0  0  0  0
  6 10  1  0  0  0  0
  8  2  1  0  0  0  0
  9  6  1  0  0  0  0
 11  6  1  0  0  0  0
 12  7  1  0  0  0  0
M  END
$$$$
