Compound 090, distorted structure 03
 OpenBabel12112416303D

 12 11  0  0  0  0  0  0  0  0999 V2000
   -1.8823   -1.1601   -0.1612 C   0  0  0  0  0  0  0  0  0  0  0  0
   -1.3501    0.5290    0.1459 S   0  0  0  0  0  0  0  0  0  0  0  0
   -1.8035   -1.3824   -1.1750 H   0  0  0  0  0  0  0  0  0  0  0  0
   -2.9122   -1.2289    0.1592 H   0  0  0  0  0  0  0  0  0  0  0  0
   -1.3200   -1.9088    0.4486 H   0  0  0  0  0  0  0  0  0  0  0  0
    0.3880    0.4689   -0.4660 C   0  0  0  0  0  0  0  0  0  0  0  0
    1.2926   -0.1680    0.4155 C   0  0  0  0  0  0  0  0  0  0  0  0
    0.6405    1.5139   -0.7146 H   0  0  0  0  0  0  0  0  0  0  0  0
    0.2999   -0.0405   -1.4532 H   0  0  0  0  0  0  0  0  0  0  0  0
    2.5566   -0.2221   -0.0934 F   0  0  0  0  0  0  0  0  0  0  0  0
    1.0224   -1.2356    0.7146 H   0  0  0  0  0  0  0  0  0  0  0  0
    1.4162    0.3877    1.3746 H   0  0  0  0  0  0  0  0  0  0  0  0
  1  2  1  0  0  0  0
  1  4  1  0  0  0  0
  1  5  1  0  0  0  0
  3  1  1  0  0  0  0
  6  2  1  0  0  0  0
  6  7  1  0  0  0  0
  7 11  1  0  0  0  0
  7 12  1  0  0  0  0
  8  6  1  0  0  0  0
  9  6  1  0  0  0  0
 10  7  1  0  0  0  0
M  END
$$$$
