Compound 090, distorted structure 05
 OpenBabel11072411493D

 12 11  0  0  0  0  0  0  0  0999 V2000
   -1.8995   -1.1059   -0.0900 C   0  0  0  0  0  0  0  0  0  0  0  0
   -1.3232    0.6313    0.2082 S   0  0  0  0  0  0  0  0  0  0  0  0
   -1.7968   -1.4458   -1.2694 H   0  0  0  0  0  0  0  0  0  0  0  0
   -2.9466   -1.1861    0.2229 H   0  0  0  0  0  0  0  0  0  0  0  0
   -1.2764   -1.8269    0.3708 H   0  0  0  0  0  0  0  0  0  0  0  0
    0.3400    0.5587   -0.4961 C   0  0  0  0  0  0  0  0  0  0  0  0
    1.2915   -0.1937    0.4020 C   0  0  0  0  0  0  0  0  0  0  0  0
    0.6703    1.5723   -0.6635 H   0  0  0  0  0  0  0  0  0  0  0  0
    0.3011   -0.0563   -1.4416 H   0  0  0  0  0  0  0  0  0  0  0  0
    2.5174   -0.1670   -0.0499 F   0  0  0  0  0  0  0  0  0  0  0  0
    0.9815   -1.2670    0.7207 H   0  0  0  0  0  0  0  0  0  0  0  0
    1.4416    0.3726    1.3498 H   0  0  0  0  0  0  0  0  0  0  0  0
  1  2  1  0  0  0  0
  1  4  1  0  0  0  0
  1  5  1  0  0  0  0
  3  1  1  0  0  0  0
  6  2  1  0  0  0  0
  6  7  1  0  0  0  0
  7 11  1  0  0  0  0
  7 12  1  0  0  0  0
  8  6  1  0  0  0  0
  9  6  1  0  0  0  0
 10  7  1  0  0  0  0
M  END
$$$$
