Compound 090, distorted structure 02
 OpenBabel12112416303D

 12 11  0  0  0  0  0  0  0  0999 V2000
   -1.9055   -1.1819   -0.1738 C   0  0  0  0  0  0  0  0  0  0  0  0
   -1.3220    0.5477    0.1974 S   0  0  0  0  0  0  0  0  0  0  0  0
   -1.8328   -1.3933   -1.2308 H   0  0  0  0  0  0  0  0  0  0  0  0
   -2.9341   -1.1894    0.1469 H   0  0  0  0  0  0  0  0  0  0  0  0
   -1.3154   -1.8810    0.4297 H   0  0  0  0  0  0  0  0  0  0  0  0
    0.3582    0.5097   -0.5319 C   0  0  0  0  0  0  0  0  0  0  0  0
    1.3277   -0.1788    0.4688 C   0  0  0  0  0  0  0  0  0  0  0  0
    0.6668    1.4946   -0.6959 H   0  0  0  0  0  0  0  0  0  0  0  0
    0.3624   -0.0206   -1.4502 H   0  0  0  0  0  0  0  0  0  0  0  0
    2.5576   -0.2394   -0.1243 F   0  0  0  0  0  0  0  0  0  0  0  0
    0.9744   -1.2193    0.6621 H   0  0  0  0  0  0  0  0  0  0  0  0
    1.3665    0.3923    1.3764 H   0  0  0  0  0  0  0  0  0  0  0  0
  1  4  1  0  0  0  0
  1  2  1  0  0  0  0
  1  5  1  0  0  0  0
  3  1  1  0  0  0  0
  6  2  1  0  0  0  0
  6  7  1  0  0  0  0
  7 11  1  0  0  0  0
  7 12  1  0  0  0  0
  8  6  1  0  0  0  0
  9  6  1  0  0  0  0
 10  7  1  0  0  0  0
M  END
$$$$
