Compound 091, distorted structure 03
 OpenBabel11072411503D

 13 13  0  0  0  0  0  0  0  0999 V2000
    0.2230   -1.2841   -0.0575 C   0  0  0  0  0  0  0  0  0  0  0  0
    1.5958   -1.2230    0.0327 C   0  0  0  0  0  0  0  0  0  0  0  0
    2.3179   -0.0305   -0.0425 C   0  0  0  0  0  0  0  0  0  0  0  0
    1.6031    1.1355    0.0612 C   0  0  0  0  0  0  0  0  0  0  0  0
    0.1921    1.1619    0.0455 C   0  0  0  0  0  0  0  0  0  0  0  0
   -0.5003   -0.0701   -0.0264 C   0  0  0  0  0  0  0  0  0  0  0  0
   -2.2794    0.0193   -0.0375 S   0  0  0  0  0  0  0  0  0  0  0  0
   -0.2524   -2.1938   -0.0441 H   0  0  0  0  0  0  0  0  0  0  0  0
    2.1896   -2.1035   -0.0124 H   0  0  0  0  0  0  0  0  0  0  0  0
    3.4191    0.0055    0.0682 H   0  0  0  0  0  0  0  0  0  0  0  0
    2.0760    2.1281    0.0115 H   0  0  0  0  0  0  0  0  0  0  0  0
   -0.2776    2.1409   -0.0307 H   0  0  0  0  0  0  0  0  0  0  0  0
   -2.4693   -1.3343    0.0603 H   0  0  0  0  0  0  0  0  0  0  0  0
  1  8  1  0  0  0  0
  1  6  2  0  0  0  0
  1  2  1  0  0  0  0
  3  2  2  0  0  0  0
  3  4  1  0  0  0  0
  3 10  1  0  0  0  0
  5  4  2  0  0  0  0
  6  5  1  0  0  0  0
  7  6  1  0  0  0  0
  7 13  1  0  0  0  0
  9  2  1  0  0  0  0
 11  4  1  0  0  0  0
 12  5  1  0  0  0  0
M  END
$$$$
