Compound 091, distorted structure 05
 OpenBabel12112416303D

 13 13  0  0  0  0  0  0  0  0999 V2000
    0.1950   -1.1796   -0.0060 C   0  0  0  0  0  0  0  0  0  0  0  0
    1.6417   -1.1976    0.0424 C   0  0  0  0  0  0  0  0  0  0  0  0
    2.3231   -0.0362   -0.0242 C   0  0  0  0  0  0  0  0  0  0  0  0
    1.6503    1.1576    0.0220 C   0  0  0  0  0  0  0  0  0  0  0  0
    0.2002    1.1726   -0.0249 C   0  0  0  0  0  0  0  0  0  0  0  0
   -0.4333   -0.0345   -0.0121 C   0  0  0  0  0  0  0  0  0  0  0  0
   -2.2382    0.1082   -0.0447 S   0  0  0  0  0  0  0  0  0  0  0  0
   -0.2364   -2.1406    0.0426 H   0  0  0  0  0  0  0  0  0  0  0  0
    2.1915   -2.1558   -0.0470 H   0  0  0  0  0  0  0  0  0  0  0  0
    3.3815    0.0464    0.0072 H   0  0  0  0  0  0  0  0  0  0  0  0
    2.1232    2.1941   -0.0311 H   0  0  0  0  0  0  0  0  0  0  0  0
   -0.3588    2.1389   -0.0101 H   0  0  0  0  0  0  0  0  0  0  0  0
   -2.4473   -1.2940   -0.0027 H   0  0  0  0  0  0  0  0  0  0  0  0
  1  2  1  0  0  0  0
  1  8  1  0  0  0  0
  3 10  1  0  0  0  0
  3  4  1  0  0  0  0
  3  2  2  0  0  0  0
  5  6  1  0  0  0  0
  5 12  1  0  0  0  0
  5  4  2  0  0  0  0
  6  1  2  0  0  0  0
  7  6  1  0  0  0  0
  7 13  1  0  0  0  0
  9  2  1  0  0  0  0
 11  4  1  0  0  0  0
M  END
$$$$
