Compound 092, distorted structure 09
 OpenBabel12102416393D

 14 14  0  0  0  0  0  0  0  0999 V2000
   -1.1155    1.2630    0.2553 C   0  0  0  0  0  0  0  0  0  0  0  0
    0.3149    1.4143   -0.3833 C   0  0  0  0  0  0  0  0  0  0  0  0
    1.4185    0.0530    0.1090 S   0  0  0  0  0  0  0  0  0  0  0  0
    0.8686    2.2950   -0.0722 H   0  0  0  0  0  0  0  0  0  0  0  0
    0.2488    1.3446   -1.3976 H   0  0  0  0  0  0  0  0  0  0  0  0
    0.3458   -1.3241   -0.4168 C   0  0  0  0  0  0  0  0  0  0  0  0
   -1.1137   -1.1287    0.1885 C   0  0  0  0  0  0  0  0  0  0  0  0
    0.8593   -2.2862    0.0812 H   0  0  0  0  0  0  0  0  0  0  0  0
    0.2839   -1.3608   -1.4311 H   0  0  0  0  0  0  0  0  0  0  0  0
   -1.6325   -0.0943   -0.2423 O   0  0  0  0  0  0  0  0  0  0  0  0
   -0.8645   -1.1951    1.3763 H   0  0  0  0  0  0  0  0  0  0  0  0
   -1.7310   -2.0575   -0.1116 H   0  0  0  0  0  0  0  0  0  0  0  0
   -1.6087    2.0720   -0.1183 H   0  0  0  0  0  0  0  0  0  0  0  0
   -0.8826    1.1459    1.3828 H   0  0  0  0  0  0  0  0  0  0  0  0
  1 14  1  0  0  0  0
  2  4  1  0  0  0  0
  2  3  1  0  0  0  0
  2  1  1  0  0  0  0
  5  2  1  0  0  0  0
  6  8  1  0  0  0  0
  6  3  1  0  0  0  0
  6  7  1  0  0  0  0
  7 11  1  0  0  0  0
  9  6  1  0  0  0  0
 10  7  1  0  0  0  0
 10  1  1  0  0  0  0
 12  7  1  0  0  0  0
 13  1  1  0  0  0  0
M  END
$$$$
