Compound 093, distorted structure 01
 OpenBabel12112416303D

 15 15  0  0  0  0  0  0  0  0999 V2000
    0.1029    1.0439   -0.7411 C   0  0  0  0  0  0  0  0  0  0  0  0
    1.1860    0.1475   -0.4622 N   0  0  0  0  0  0  0  0  0  0  0  0
    0.6361   -1.2144   -0.5386 C   0  0  0  0  0  0  0  0  0  0  0  0
   -0.6547   -1.2719    0.3313 C   0  0  0  0  0  0  0  0  0  0  0  0
    1.3725   -1.9332   -0.2352 H   0  0  0  0  0  0  0  0  0  0  0  0
    0.3452   -1.4004   -1.6002 H   0  0  0  0  0  0  0  0  0  0  0  0
   -1.4395    0.4112    0.1943 S   0  0  0  0  0  0  0  0  0  0  0  0
   -0.4298   -1.4939    1.3753 H   0  0  0  0  0  0  0  0  0  0  0  0
   -1.3425   -2.0504   -0.0684 H   0  0  0  0  0  0  0  0  0  0  0  0
   -0.1219    1.0437   -1.8026 H   0  0  0  0  0  0  0  0  0  0  0  0
    0.3094    2.0775   -0.4232 H   0  0  0  0  0  0  0  0  0  0  0  0
    1.8232    0.3917    0.8479 C   0  0  0  0  0  0  0  0  0  0  0  0
    2.2696    1.4035    0.8205 H   0  0  0  0  0  0  0  0  0  0  0  0
    2.5875   -0.3327    1.0030 H   0  0  0  0  0  0  0  0  0  0  0  0
    1.1095    0.3876    1.6888 H   0  0  0  0  0  0  0  0  0  0  0  0
  1  2  1  0  0  0  0
  1 11  1  0  0  0  0
  1  7  1  0  0  0  0
  2 12  1  0  0  0  0
  3  2  1  0  0  0  0
  3  5  1  0  0  0  0
  3  4  1  0  0  0  0
  4  8  1  0  0  0  0
  6  3  1  0  0  0  0
  7  4  1  0  0  0  0
  9  4  1  0  0  0  0
 10  1  1  0  0  0  0
 12 14  1  0  0  0  0
 12 15  1  0  0  0  0
 13 12  1  0  0  0  0
M  END
$$$$
