Compound 093, distorted structure 08
 OpenBabel11072411513D

 15 15  0  0  0  0  0  0  0  0999 V2000
   -0.0066    0.9659   -0.6205 C   0  0  0  0  0  0  0  0  0  0  0  0
    1.1651    0.1513   -0.4662 N   0  0  0  0  0  0  0  0  0  0  0  0
    0.5798   -1.1093   -0.5923 C   0  0  0  0  0  0  0  0  0  0  0  0
   -0.6537   -1.2311    0.2921 C   0  0  0  0  0  0  0  0  0  0  0  0
    1.2698   -1.9388   -0.2151 H   0  0  0  0  0  0  0  0  0  0  0  0
    0.2419   -1.3070   -1.5445 H   0  0  0  0  0  0  0  0  0  0  0  0
   -1.4655    0.4469    0.0780 S   0  0  0  0  0  0  0  0  0  0  0  0
   -0.3944   -1.5444    1.4655 H   0  0  0  0  0  0  0  0  0  0  0  0
   -1.2765   -1.9821   -0.1366 H   0  0  0  0  0  0  0  0  0  0  0  0
   -0.0413    1.1401   -1.8418 H   0  0  0  0  0  0  0  0  0  0  0  0
    0.2026    2.1276   -0.2912 H   0  0  0  0  0  0  0  0  0  0  0  0
    1.8174    0.4122    0.9116 C   0  0  0  0  0  0  0  0  0  0  0  0
    2.3554    1.5094    0.8914 H   0  0  0  0  0  0  0  0  0  0  0  0
    2.6503   -0.2460    1.0307 H   0  0  0  0  0  0  0  0  0  0  0  0
    1.1119    0.2729    1.7235 H   0  0  0  0  0  0  0  0  0  0  0  0
  1  2  1  0  0  0  0
  1 11  1  0  0  0  0
  1  7  1  0  0  0  0
  2 12  1  0  0  0  0
  3  2  1  0  0  0  0
  3  5  1  0  0  0  0
  3  4  1  0  0  0  0
  4  8  1  0  0  0  0
  6  3  1  0  0  0  0
  7  4  1  0  0  0  0
  9  4  1  0  0  0  0
 10  1  1  0  0  0  0
 12 14  1  0  0  0  0
 12 15  1  0  0  0  0
 13 12  1  0  0  0  0
M  END
$$$$
