Compound 093, distorted structure 02
 OpenBabel12102416393D

 15 15  0  0  0  0  0  0  0  0999 V2000
    0.0942    1.0385   -0.7268 C   0  0  0  0  0  0  0  0  0  0  0  0
    1.1684    0.1716   -0.4333 N   0  0  0  0  0  0  0  0  0  0  0  0
    0.6375   -1.1838   -0.5609 C   0  0  0  0  0  0  0  0  0  0  0  0
   -0.6622   -1.2840    0.2949 C   0  0  0  0  0  0  0  0  0  0  0  0
    1.3452   -1.9299   -0.2261 H   0  0  0  0  0  0  0  0  0  0  0  0
    0.3836   -1.3753   -1.6022 H   0  0  0  0  0  0  0  0  0  0  0  0
   -1.4128    0.4205    0.1630 S   0  0  0  0  0  0  0  0  0  0  0  0
   -0.4245   -1.4792    1.3588 H   0  0  0  0  0  0  0  0  0  0  0  0
   -1.3741   -2.0094   -0.0482 H   0  0  0  0  0  0  0  0  0  0  0  0
   -0.1303    1.0445   -1.7928 H   0  0  0  0  0  0  0  0  0  0  0  0
    0.3295    2.0644   -0.3875 H   0  0  0  0  0  0  0  0  0  0  0  0
    1.7973    0.3892    0.8652 C   0  0  0  0  0  0  0  0  0  0  0  0
    2.3079    1.3986    0.8496 H   0  0  0  0  0  0  0  0  0  0  0  0
    2.5807   -0.3544    1.0293 H   0  0  0  0  0  0  0  0  0  0  0  0
    1.1234    0.3491    1.6635 H   0  0  0  0  0  0  0  0  0  0  0  0
  1  2  1  0  0  0  0
  1 11  1  0  0  0  0
  1  7  1  0  0  0  0
  2 12  1  0  0  0  0
  3  2  1  0  0  0  0
  3  5  1  0  0  0  0
  3  4  1  0  0  0  0
  4  8  1  0  0  0  0
  6  3  1  0  0  0  0
  7  4  1  0  0  0  0
  9  4  1  0  0  0  0
 10  1  1  0  0  0  0
 12 14  1  0  0  0  0
 12 15  1  0  0  0  0
 13 12  1  0  0  0  0
M  END
$$$$
