Compound 094, distorted structure 06
 OpenBabel12112416303D

  5  1  0  0  0  0  0  0  0  0999 V2000
   -0.0123    0.1398   -0.5035 C   0  0  0  0  0  1  0  0  0  0  0  0
   -0.9234    1.4606    0.2185 *   0  0  0  0  0  0  0  0  0  0  0  0
    0.1725    0.1964   -1.7743 H   0  0  0  0  0  0  0  0  0  0  0  0
   -0.8970   -1.5081   -0.0608 *   0  0  0  0  0  0  0  0  0  0  0  0
    1.8849    0.0563   -0.1067 *   0  0  0  0  0  0  0  0  0  0  0  0
  3  1  1  0  0  0  0
M  END
$$$$
