Compound 094 optimized with r2SCAN-3c
 OpenBabel12112416303D

  5  4  0  0  0  0  0  0  0  0999 V2000
   -0.0000    0.0000   -0.4874 C   0  0  0  0  0  0  0  0  0  0  0  0
   -0.8955    1.4443    0.0642 Cl  0  0  0  0  0  0  0  0  0  0  0  0
    0.0000    0.0000   -1.5774 H   0  0  0  0  0  0  0  0  0  0  0  0
   -0.8031   -1.4976    0.0642 Cl  0  0  0  0  0  0  0  0  0  0  0  0
    1.6986    0.0533    0.0642 Cl  0  0  0  0  0  0  0  0  0  0  0  0
  1  5  1  0  0  0  0
  1  4  1  0  0  0  0
  1  2  1  0  0  0  0
  3  1  1  0  0  0  0
M  END
$$$$
