Compound 094, distorted structure 09
 OpenBabel12112416303D

  5  1  0  0  0  0  0  0  0  0999 V2000
    0.2588   -0.3397   -0.1606 C   0  0  0  0  0  1  0  0  0  0  0  0
   -0.9682    1.5185    0.0583 *   0  0  0  0  0  0  0  0  0  0  0  0
    0.2061   -0.3104   -1.3591 H   0  0  0  0  0  0  0  0  0  0  0  0
   -0.7966   -1.5796    0.2190 *   0  0  0  0  0  0  0  0  0  0  0  0
    1.6344    0.3893    0.2715 *   0  0  0  0  0  0  0  0  0  0  0  0
  3  1  1  0  0  0  0
M  END
$$$$
