Compound 095, distorted structure 04
 OpenBabel12102416393D

  8  5  0  0  0  0  0  0  0  0999 V2000
   -0.5495    0.4699   -1.0450 C   0  0  0  0  0  3  0  0  0  0  0  0
    0.5628   -0.3672   -0.9620 C   0  0  0  0  0  3  0  0  0  0  0  0
   -1.7255    0.0186    0.3397 *   0  0  0  0  0  0  0  0  0  0  0  0
   -1.1656    0.2074   -1.8807 H   0  0  0  0  0  0  0  0  0  0  0  0
   -0.4002    1.4685   -0.9110 H   0  0  0  0  0  0  0  0  0  0  0  0
    1.7574   -0.0666    0.3585 *   0  0  0  0  0  0  0  0  0  0  0  0
    1.2057   -0.2606   -1.9278 H   0  0  0  0  0  0  0  0  0  0  0  0
    0.3475   -1.4305   -0.9714 H   0  0  0  0  0  0  0  0  0  0  0  0
  1  2  1  0  0  0  0
  1  5  1  0  0  0  0
  4  1  1  0  0  0  0
  7  2  1  0  0  0  0
  8  2  1  0  0  0  0
M  END
$$$$
