Compound 095 optimized with r2SCAN-3c
 OpenBabel12102416393D

  8  7  0  0  0  0  0  0  0  0999 V2000
   -0.6203    0.4282   -0.9663 C   0  0  0  0  0  0  0  0  0  0  0  0
    0.6203   -0.4279   -0.9664 C   0  0  0  0  0  0  0  0  0  0  0  0
   -1.7230    0.0398    0.4181 Cl  0  0  0  0  0  0  0  0  0  0  0  0
   -1.1859    0.2392   -1.8847 H   0  0  0  0  0  0  0  0  0  0  0  0
   -0.3761    1.4907   -0.8987 H   0  0  0  0  0  0  0  0  0  0  0  0
    1.7230   -0.0399    0.4182 Cl  0  0  0  0  0  0  0  0  0  0  0  0
    1.1859   -0.2388   -1.8848 H   0  0  0  0  0  0  0  0  0  0  0  0
    0.3761   -1.4905   -0.8990 H   0  0  0  0  0  0  0  0  0  0  0  0
  1  5  1  0  0  0  0
  1  3  1  0  0  0  0
  2  1  1  0  0  0  0
  2  8  1  0  0  0  0
  2  6  1  0  0  0  0
  4  1  1  0  0  0  0
  7  2  1  0  0  0  0
M  END
$$$$
