Compound 095, distorted structure 01
 OpenBabel12112416303D

  8  5  0  0  0  0  0  0  0  0999 V2000
   -0.6347    0.4253   -0.9849 C   0  0  0  0  0  3  0  0  0  0  0  0
    0.5891   -0.4583   -0.9965 C   0  0  0  0  0  3  0  0  0  0  0  0
   -1.6974    0.0577    0.4105 *   0  0  0  0  0  0  0  0  0  0  0  0
   -1.2242    0.2755   -1.8645 H   0  0  0  0  0  0  0  0  0  0  0  0
   -0.3600    1.4717   -0.9150 H   0  0  0  0  0  0  0  0  0  0  0  0
    1.7223   -0.0580    0.4103 *   0  0  0  0  0  0  0  0  0  0  0  0
    1.1481   -0.2224   -1.8901 H   0  0  0  0  0  0  0  0  0  0  0  0
    0.3456   -1.5272   -0.8587 H   0  0  0  0  0  0  0  0  0  0  0  0
  1  5  1  0  0  0  0
  2  1  1  0  0  0  0
  2  8  1  0  0  0  0
  4  1  1  0  0  0  0
  7  2  1  0  0  0  0
M  END
$$$$
