Compound 096, distorted structure 01
 OpenBabel12112416303D

  8  5  0  0  0  0  0  0  0  0999 V2000
    0.0116   -0.4380    0.4208 C   0  0  0  0  0  2  0  0  0  0  0  0
    0.0033   -1.8039   -0.1738 C   0  0  0  0  0  0  0  0  0  0  0  0
   -0.0213   -0.4418    1.5311 H   0  0  0  0  0  0  0  0  0  0  0  0
   -1.4584    0.4498   -0.0497 *   0  0  0  0  0  0  0  0  0  0  0  0
    1.4657    0.4739   -0.0253 *   0  0  0  0  0  0  0  0  0  0  0  0
   -0.8699   -2.3896    0.1645 H   0  0  0  0  0  0  0  0  0  0  0  0
    0.9045   -2.3632    0.1439 H   0  0  0  0  0  0  0  0  0  0  0  0
    0.0108   -1.7778   -1.2878 H   0  0  0  0  0  0  0  0  0  0  0  0
  1  3  1  0  0  0  0
  2  7  1  0  0  0  0
  2  6  1  0  0  0  0
  2  1  1  0  0  0  0
  8  2  1  0  0  0  0
M  END
$$$$
