Compound 097, distorted structure 04
 OpenBabel12102416393D

  9  7  0  0  0  0  0  0  0  0999 V2000
    2.2980    0.3416    0.3063 C   0  0  0  0  0  0  0  0  0  0  0  0
    1.2794    0.0279   -0.4640 C   0  0  0  0  0  0  0  0  0  0  0  0
    0.0353   -0.8428    0.0439 C   0  0  0  0  0  3  0  0  0  0  0  0
   -1.4768    0.2455    0.0004 *   0  0  0  0  0  0  0  0  0  0  0  0
    0.2390   -1.0983    1.1178 H   0  0  0  0  0  0  0  0  0  0  0  0
   -0.0955   -1.6867   -0.4722 H   0  0  0  0  0  0  0  0  0  0  0  0
    3.0661    0.8500   -0.1505 H   0  0  0  0  0  0  0  0  0  0  0  0
    2.3232    0.0087    1.3249 H   0  0  0  0  0  0  0  0  0  0  0  0
    1.1465    0.2465   -1.5139 H   0  0  0  0  0  0  0  0  0  0  0  0
  1  8  1  0  0  0  0
  2  3  1  0  0  0  0
  2  1  2  0  0  0  0
  3  5  1  0  0  0  0
  6  3  1  0  0  0  0
  7  1  1  0  0  0  0
  9  2  1  0  0  0  0
M  END
$$$$
