Compound 097, distorted structure 08
 OpenBabel11072411513D

  9  7  0  0  0  0  0  0  0  0999 V2000
    2.3856    0.2180    0.1678 C   0  0  0  0  0  3  0  0  0  0  0  0
    1.2043    0.0389   -0.3805 C   0  0  0  0  0  3  0  0  0  0  0  0
    0.0894   -0.8548    0.1965 C   0  0  0  0  0  3  0  0  0  0  0  0
   -1.4862    0.2755   -0.0996 *   0  0  0  0  0  0  0  0  0  0  0  0
    0.1339   -1.0139    1.1118 H   0  0  0  0  0  0  0  0  0  0  0  0
   -0.1212   -1.6933   -0.5491 H   0  0  0  0  0  0  0  0  0  0  0  0
    3.1800    0.9817   -0.1011 H   0  0  0  0  0  0  0  0  0  0  0  0
    2.3508    0.0406    1.4220 H   0  0  0  0  0  0  0  0  0  0  0  0
    1.2508    0.2841   -1.5158 H   0  0  0  0  0  0  0  0  0  0  0  0
  1  8  1  0  0  0  0
  2  1  1  0  0  0  0
  2  3  1  0  0  0  0
  3  5  1  0  0  0  0
  6  3  1  0  0  0  0
  7  1  1  0  0  0  0
  9  2  1  0  0  0  0
M  END
$$$$
