Compound 098, distorted structure 02
 OpenBabel12112416303D

  9  7  0  0  0  0  0  0  0  0999 V2000
    2.5243   -0.0141    0.0273 C   0  0  0  0  0  0  0  0  0  0  0  0
    1.1418    0.3871    0.0340 C   0  0  0  0  0  0  0  0  0  0  0  0
    3.1035    0.3436   -0.8582 H   0  0  0  0  0  0  0  0  0  0  0  0
    2.6364   -1.1328   -0.0241 H   0  0  0  0  0  0  0  0  0  0  0  0
    3.0811    0.3116    0.8907 H   0  0  0  0  0  0  0  0  0  0  0  0
    0.0634   -0.4606    0.0213 C   0  0  0  0  0  3  0  0  0  0  0  0
   -1.5730    0.0351   -0.0304 *   0  0  0  0  0  0  0  0  0  0  0  0
    0.9010    1.4618   -0.0137 H   0  0  0  0  0  0  0  0  0  0  0  0
    0.1792   -1.5083    0.0322 H   0  0  0  0  0  0  0  0  0  0  0  0
  1  2  1  0  0  0  0
  1  5  1  0  0  0  0
  3  1  1  0  0  0  0
  4  1  1  0  0  0  0
  6  9  1  0  0  0  0
  6  2  2  0  0  0  0
  8  2  1  0  0  0  0
M  END
$$$$
