Compound 098 optimized with r2SCAN-3c
 OpenBabel12102416393D

  9  8  0  0  0  0  0  0  0  0999 V2000
    2.5413   -0.0499   -0.0001 C   0  0  0  0  0  0  0  0  0  0  0  0
    1.1122    0.3925   -0.0001 C   0  0  0  0  0  0  0  0  0  0  0  0
    3.0671    0.3360   -0.8814 H   0  0  0  0  0  0  0  0  0  0  0  0
    2.6280   -1.1400    0.0005 H   0  0  0  0  0  0  0  0  0  0  0  0
    3.0674    0.3369    0.8807 H   0  0  0  0  0  0  0  0  0  0  0  0
    0.0954   -0.4588    0.0001 C   0  0  0  0  0  0  0  0  0  0  0  0
   -1.5794    0.0585    0.0000 Cl  0  0  0  0  0  0  0  0  0  0  0  0
    0.9118    1.4623   -0.0003 H   0  0  0  0  0  0  0  0  0  0  0  0
    0.2052   -1.5391    0.0003 H   0  0  0  0  0  0  0  0  0  0  0  0
  1  4  1  0  0  0  0
  1  5  1  0  0  0  0
  2  1  1  0  0  0  0
  2  6  2  0  0  0  0
  3  1  1  0  0  0  0
  6  9  1  0  0  0  0
  7  6  1  0  0  0  0
  8  2  1  0  0  0  0
M  END
$$$$
