Compound 099, distorted structure 01
 OpenBabel12112416303D

 10  8  0  0  0  0  0  0  0  0999 V2000
    2.4872   -0.2996   -0.0115 C   0  0  0  0  0  0  0  0  0  0  0  0
    1.0481   -0.8084    0.0213 C   0  0  0  0  0  0  0  0  0  0  0  0
    2.6766    0.3240    0.8769 H   0  0  0  0  0  0  0  0  0  0  0  0
    2.6838    0.3349   -0.8638 H   0  0  0  0  0  0  0  0  0  0  0  0
    3.1619   -1.1608    0.0046 H   0  0  0  0  0  0  0  0  0  0  0  0
    0.0528    0.3322    0.0089 C   0  0  0  0  0  3  0  0  0  0  0  0
    0.8408   -1.4196    0.8799 H   0  0  0  0  0  0  0  0  0  0  0  0
    0.8469   -1.4075   -0.8478 H   0  0  0  0  0  0  0  0  0  0  0  0
    0.2491    1.4829   -0.0026 O   0  0  0  0  0  0  0  0  0  0  0  0
   -1.6679   -0.3344   -0.0095 *   0  0  0  0  0  0  0  0  0  0  0  0
  1  5  1  0  0  0  0
  1  2  1  0  0  0  0
  1  3  1  0  0  0  0
  2  7  1  0  0  0  0
  4  1  1  0  0  0  0
  6  2  1  0  0  0  0
  8  2  1  0  0  0  0
  9  6  2  0  0  0  0
M  END
$$$$
