Compound 099 optimized with r2SCAN-3c
 OpenBabel12112416303D

 10  9  0  0  0  0  0  0  0  0999 V2000
    2.4905   -0.2951   -0.0004 C   0  0  0  0  0  0  0  0  0  0  0  0
    1.0533   -0.8015    0.0004 C   0  0  0  0  0  0  0  0  0  0  0  0
    2.6905    0.3176    0.8821 H   0  0  0  0  0  0  0  0  0  0  0  0
    2.6900    0.3161   -0.8841 H   0  0  0  0  0  0  0  0  0  0  0  0
    3.1820   -1.1419    0.0002 H   0  0  0  0  0  0  0  0  0  0  0  0
    0.0527    0.3163    0.0005 C   0  0  0  0  0  0  0  0  0  0  0  0
    0.8341   -1.4296    0.8731 H   0  0  0  0  0  0  0  0  0  0  0  0
    0.8333   -1.4303   -0.8715 H   0  0  0  0  0  0  0  0  0  0  0  0
    0.2541    1.4823    0.0018 O   0  0  0  0  0  0  0  0  0  0  0  0
   -1.6760   -0.3265   -0.0020 Cl  0  0  0  0  0  0  0  0  0  0  0  0
  1  5  1  0  0  0  0
  1  2  1  0  0  0  0
  1  3  1  0  0  0  0
  2  6  1  0  0  0  0
  2  7  1  0  0  0  0
  4  1  1  0  0  0  0
  6  9  2  0  0  0  0
  8  2  1  0  0  0  0
 10  6  1  0  0  0  0
M  END
$$$$
