Compound 099, distorted structure 05
 OpenBabel12102416393D

 10  8  0  0  0  0  0  0  0  0999 V2000
    2.4606   -0.2985   -0.0220 C   0  0  0  0  0  0  0  0  0  0  0  0
    1.0802   -0.8822   -0.0549 C   0  0  0  0  0  0  0  0  0  0  0  0
    2.7292    0.2691    0.8827 H   0  0  0  0  0  0  0  0  0  0  0  0
    2.7222    0.3775   -0.9602 H   0  0  0  0  0  0  0  0  0  0  0  0
    3.2575   -1.1829   -0.0334 H   0  0  0  0  0  0  0  0  0  0  0  0
    0.0666    0.3003    0.0706 C   0  0  0  0  0  3  0  0  0  0  0  0
    0.8449   -1.3958    0.8441 H   0  0  0  0  0  0  0  0  0  0  0  0
    0.7881   -1.4749   -0.8080 H   0  0  0  0  0  0  0  0  0  0  0  0
    0.2398    1.4449   -0.0819 O   0  0  0  0  0  0  0  0  0  0  0  0
   -1.6463   -0.3228   -0.0165 *   0  0  0  0  0  0  0  0  0  0  0  0
  1  3  1  0  0  0  0
  2  1  1  0  0  0  0
  2  6  1  0  0  0  0
  2  7  1  0  0  0  0
  4  1  1  0  0  0  0
  5  1  1  0  0  0  0
  8  2  1  0  0  0  0
  9  6  2  0  0  0  0
M  END
$$$$
