Compound 100, distorted structure 05
 OpenBabel12102416393D

 11  9  0  0  0  0  0  0  0  0999 V2000
   -0.5769    1.9255   -0.2729 C   0  0  0  0  0  0  0  0  0  0  0  0
   -0.6500    0.4427    0.2053 C   0  0  0  0  0  0  0  0  0  0  0  0
   -1.5901    2.1744   -0.7652 H   0  0  0  0  0  0  0  0  0  0  0  0
    0.1755    1.9897   -1.0533 H   0  0  0  0  0  0  0  0  0  0  0  0
   -0.4019    2.5728    0.5645 H   0  0  0  0  0  0  0  0  0  0  0  0
    0.5844   -0.0854    0.9673 C   0  0  0  0  0  3  0  0  0  0  0  0
    0.3642   -1.0144    1.3727 H   0  0  0  0  0  0  0  0  0  0  0  0
    0.9409    0.6528    1.6972 H   0  0  0  0  0  0  0  0  0  0  0  0
    1.9744   -0.3159   -0.2711 *   0  0  0  0  0  0  0  0  0  0  0  0
   -1.5838   -0.3179    0.0342 C   0  0  0  0  0  0  0  0  0  0  0  0
   -2.5418   -1.0071   -0.2138 O   0  0  0  0  0  0  0  0  0  0  0  0
  1  2  1  0  0  0  0
  1  5  1  0  0  0  0
  2  6  1  0  0  0  0
  3  1  1  0  0  0  0
  4  1  1  0  0  0  0
  6  7  1  0  0  0  0
  6  8  1  0  0  0  0
 10  2  2  0  0  0  0
 11 10  2  0  0  0  0
M  END
$$$$
