Butadiene molecule, only conformer from CENSO run (r2SCAN-3c)
 OpenBabel11072411323D

 10  9  0  0  0  0  0  0  0  0999 V2000
    1.8402    0.1189   -0.0001 C   0  0  0  0  0  0  0  0  0  0  0  0
    0.6061   -0.3980   -0.0001 C   0  0  0  0  0  0  0  0  0  0  0  0
    1.9993    1.1948   -0.0000 H   0  0  0  0  0  0  0  0  0  0  0  0
    2.7217   -0.5136   -0.0000 H   0  0  0  0  0  0  0  0  0  0  0  0
   -0.6062    0.3980   -0.0001 C   0  0  0  0  0  0  0  0  0  0  0  0
    0.4760   -1.4808   -0.0000 H   0  0  0  0  0  0  0  0  0  0  0  0
   -1.8402   -0.1190    0.0000 C   0  0  0  0  0  0  0  0  0  0  0  0
   -0.4761    1.4808   -0.0001 H   0  0  0  0  0  0  0  0  0  0  0  0
   -1.9992   -1.1947    0.0000 H   0  0  0  0  0  0  0  0  0  0  0  0
   -2.7217    0.5134   -0.0000 H   0  0  0  0  0  0  0  0  0  0  0  0
  1  2  2  0  0  0  0
  1  3  1  0  0  0  0
  1  4  1  0  0  0  0
  2  6  1  0  0  0  0
  5  2  1  0  0  0  0
  5  7  2  0  0  0  0
  8  5  1  0  0  0  0
  9  7  1  0  0  0  0
 10  7  1  0  0  0  0
M  END
$$$$
