13
Compound 004, distorted structure 09
C     0.1177318    1.3248579    0.2514037 
C    -1.2593958    0.2899009   -0.0633345 
C    -0.7540110   -1.1119395    0.0187336 
C     0.7577836   -1.0224156    0.0772839 
C     1.2507953    0.4001771   -0.0089988 
H    -0.0015607    1.6154871    1.3037304 
H    -0.0707018    2.2289490   -0.3799523 
H    -1.5982142    0.5133593   -1.0502864 
H    -1.9609492    0.6464063    0.6573214 
H    -1.3203994   -2.0501087    0.1883566 
H     1.3286197   -2.0580633    0.2552042 
H     1.6534602    0.4545135   -1.1653814 
H     2.1422474    0.5433515    0.4840539 
