13
Compound 004, distorted structure 07
C    -0.0099320    1.3334068    0.1555609 
C    -1.2728681    0.3169473   -0.1270264 
C    -0.6742874   -0.9943986    0.1028782 
C     0.5808248   -1.1039008    0.1377041 
C     1.1517373    0.3363866   -0.1761280 
H     0.0440142    1.5915202    1.2483936 
H    -0.0450614    2.2233372   -0.4569390 
H    -1.7210572    0.4527292   -1.0817732 
H    -2.0841232    0.5939160    0.5455120 
H    -1.2057263   -2.0049018    0.0723668 
H     1.2334355   -1.8774641    0.2143412 
H     1.5421019    0.4818588   -1.1936165 
H     2.0370260    0.6262478    0.6627881 
