13
Compound 004, distorted structure 01
C    -0.0097052    1.2493501    0.1351210 
C    -1.2184839    0.3391791   -0.1122316 
C    -0.6549670   -1.0263934    0.0624051 
C     0.6526705   -1.0401121    0.0522708 
C     1.2461872    0.3512169   -0.1080806 
H     0.0130364    1.5922305    1.1830998 
H     0.0033524    2.1445032   -0.5080731 
H    -1.6172374    0.4737646   -1.1276725 
H    -2.0483412    0.5574112    0.5808215 
H    -1.2764337   -1.9136641    0.1475160 
H     1.2913650   -1.9433851    0.1495921 
H     1.6449319    0.4641119   -1.1433259 
H     2.0462354    0.5515752    0.5750762 
