14
Compound 074, distorted structure 03
C     0.4134360   -0.0460705    0.0106738 
C     0.9370735    0.7911993    1.1874678 
NA   -1.9975053    0.0467317    0.0221122 
C     0.9030235   -1.4517983    0.1472362 
C     0.9132396    0.5825875   -1.2706278 
H     0.6046804    1.8866074    1.0981140 
H     1.9793416    0.8489436    1.1383143 
H     0.5920616    0.4917586    2.1076282 
H     0.5295937   -1.8862839    1.0811326 
H     2.0209822   -1.4440149    0.1881219 
H     0.5474335   -2.0513180   -0.6722595 
H     0.5562163    0.0557254   -2.1816549 
H     1.9622991    0.6044648   -1.3379801 
H     0.5594528    1.5916267   -1.4627427 
