14
Compound 074, distorted structure 02
C     0.3947690   -0.0221049   -0.0024647 
C     0.8568924    0.8002695    1.1539188 
NA   -2.0273224    0.0221356    0.0131427 
C     0.8929682   -1.4391384    0.1664221 
C     0.8901215    0.6140847   -1.3433744 
H     0.5485286    1.9049464    1.1170233 
H     1.9852975    0.8543091    1.1478578 
H     0.5491210    0.4818173    2.1644072 
H     0.5785822   -1.9100690    1.0614688 
H     1.9866695   -1.4190208    0.1466668 
H     0.5698731   -2.0770091   -0.6803152 
H     0.5454953   -0.0181346   -2.1954684 
H     2.0320408    0.6233422   -1.3240179 
H     0.6034591    1.6350157   -1.4279201 
