11
Compound 031, distorted structure 04
C     1.5009614    0.0452634    0.0155425 
C     0.4068266   -1.1575986   -0.0045174 
C    -0.5577379   -0.0037673    0.0034786 
O    -1.8414330   -0.0477168   -0.0583033 
C     0.4672208    1.1022539   -0.0519415 
H     2.1760142    0.0374390   -0.9454183 
H     2.1587505    0.0168285    0.8531135 
H     0.3784848   -1.7360448    0.9204203 
H     0.3691238   -1.7145782   -0.8538006 
H     0.4214584    1.7993296    0.8427540 
H     0.4329806    1.8045672   -0.8718067 
