11
Compound 031, distorted structure 06
C     1.5997868   -0.0261819   -0.0456603 
C     0.4730308   -1.1968097   -0.0334046 
C    -0.6938937    0.0123705    0.0341559 
O    -1.8526512   -0.0225213    0.0744718 
C     0.4750832    1.0250960   -0.0110353 
H     2.1575458    0.0826811   -0.9460232 
H     2.2255481    0.0669986    0.8256615 
H     0.3326124   -1.7509691    0.8034214 
H     0.5008240   -1.8030995   -0.9671620 
H     0.3240635    1.8364464    0.9162689 
H     0.3275898    1.6923171   -0.8220587 
