Compound 031, distorted structure 06
 OpenBabel12102416353D

 11 11  0  0  0  0  0  0  0  0999 V2000
    1.5998   -0.0262   -0.0457 C   0  0  0  0  0  0  0  0  0  0  0  0
    0.4730   -1.1968   -0.0334 C   0  0  0  0  0  0  0  0  0  0  0  0
   -0.6939    0.0124    0.0342 C   0  0  0  0  0  0  0  0  0  0  0  0
   -1.8527   -0.0225    0.0745 O   0  0  0  0  0  0  0  0  0  0  0  0
    0.4751    1.0251   -0.0110 C   0  0  0  0  0  0  0  0  0  0  0  0
    2.1575    0.0827   -0.9460 H   0  0  0  0  0  0  0  0  0  0  0  0
    2.2255    0.0670    0.8257 H   0  0  0  0  0  0  0  0  0  0  0  0
    0.3326   -1.7510    0.8034 H   0  0  0  0  0  0  0  0  0  0  0  0
    0.5008   -1.8031   -0.9672 H   0  0  0  0  0  0  0  0  0  0  0  0
    0.3241    1.8364    0.9163 H   0  0  0  0  0  0  0  0  0  0  0  0
    0.3276    1.6923   -0.8221 H   0  0  0  0  0  0  0  0  0  0  0  0
  1  2  1  0  0  0  0
  1  5  1  0  0  0  0
  1  7  1  0  0  0  0
  2  3  1  0  0  0  0
  2  8  1  0  0  0  0
  3  4  2  0  0  0  0
  5  3  1  0  0  0  0
  5 10  1  0  0  0  0
  6  1  1  0  0  0  0
  9  2  1  0  0  0  0
 11  5  1  0  0  0  0
M  END
$$$$
