11
Compound 031, distorted structure 02
C     1.5781292    0.0280488    0.0240977 
C     0.4415093   -1.0926556    0.0002721 
C    -0.6157923    0.0243099    0.0261477 
O    -1.7846566   -0.0244597   -0.0132538 
C     0.4372914    1.1228930   -0.0145654 
H     2.2185845    0.0181392   -0.8791768 
H     2.1610519   -0.0241269    0.8733496 
H     0.4302832   -1.7208368    0.9064865 
H     0.4281602   -1.7688097   -0.8705908 
H     0.4021470    1.7445526    0.8889978 
H     0.4368321    1.7327422   -0.9034810 
