11
Compound 059, distorted structure 04
C     2.6448955    0.1582008    0.2907201 
C     1.5893276   -0.1973769   -0.3465320 
C     0.2925173    0.6533366   -0.2287552 
C    -0.8865845   -0.0811620    0.0356834 
H     0.1592150    1.2330478   -1.1981750 
H     0.4671872    1.4906652    0.4387791 
H     3.6224732   -0.5018827    0.2221773 
H     2.6773063    1.0129183    0.9881993 
H     1.5612049   -1.0947556   -0.9436151 
F    -1.9954546    0.7514102    0.1837962 
O    -0.9602690   -1.2623578    0.0073243 
