11
Compound 059, distorted structure 07
C     2.7577883    0.1429754    0.3235897 
C     1.5787100   -0.1742132   -0.2696300 
C     0.3309944    0.5771710   -0.2256611 
C    -0.9679597   -0.0689614   -0.0590609 
H     0.0802892    1.2249970   -1.3210930 
H     0.3685978    1.4632512    0.3700487 
H     3.5097167   -0.4810744    0.2198235 
H     2.7146751    0.9209068    0.9933876 
H     1.6348540   -1.0302168   -0.9466936 
F    -2.0582906    0.6737658    0.2238415 
O    -1.0393577   -1.2908712    0.1519741 
