11
Compound 059, distorted structure 03
C     2.7081245    0.0786371    0.4037209 
C     1.6492275   -0.1475005   -0.2769364 
C     0.3433840    0.6178598   -0.3206097 
C    -0.9320543   -0.1274767   -0.0145170 
H     0.1795395    1.1208129   -1.2960385 
H     0.4344128    1.4781170    0.4165011 
H     3.6186009   -0.4899197    0.2569925 
H     2.7906595    0.9749848    1.0698421 
H     1.5512997   -1.0761853   -0.9659907 
F    -2.0171621    0.6906324    0.1278823 
O    -1.0563983   -1.2801737    0.1157161 
