11
Compound 059, distorted structure 05
C     2.6692116    0.1505654    0.3933538 
C     1.6234839   -0.2330579   -0.3615775 
C     0.3323508    0.7042417   -0.3444231 
C    -0.8310540   -0.1781116   -0.0125408 
H     0.1536560    1.1017633   -1.2293481 
H     0.4351507    1.4926966    0.4713646 
H     3.5348423   -0.5599945    0.3532133 
H     2.7646519    0.9309869    1.0437496 
H     1.5603841   -1.0761917   -0.9231829 
F    -1.9831574    0.6366487    0.0658016 
O    -1.0051845   -1.3560533    0.0871562 
