10
Compound 013, distorted structure 08
N    -1.1629792    0.0755452    0.0493584 
H    -2.1435332    0.0354960   -0.0157987 
C    -0.2569031   -1.2003762   -0.0540116 
C     0.9539542   -0.6890170   -0.0660307 
C     0.9443897    0.6750399    0.0485130 
C    -0.2668659    1.0800276    0.0330196 
H    -0.8013157    2.1419275    0.0658048 
H     1.8554087    1.3282424    0.0384776 
H     1.7949118   -1.3091143   -0.0053228 
H    -0.7168830   -2.0636512    0.0497281 
