10
Compound 013, distorted structure 05
N    -1.1467058    0.0320466    0.0063792 
H    -2.0765529   -0.0437306    0.0021394 
C    -0.3815456   -1.0912613   -0.0140674 
C     1.0183600   -0.7323716    0.0121359 
C     0.9315338    0.6848381   -0.0059346 
C    -0.2756213    1.1450648    0.0490455 
H    -0.7142256    2.0785683    0.0178300 
H     1.8843098    1.3608925    0.0051311 
H     1.8369457   -1.3636598   -0.0236538 
H    -0.7715145   -2.1583296    0.0271394 
