10
Compound 013, distorted structure 02
N    -1.1392879    0.0186263   -0.0216131 
H    -2.0996388   -0.0095947    0.0096070 
C    -0.3095644   -1.1387236    0.0009352 
C     0.9862317   -0.7046677   -0.0148219 
C     0.9646694    0.7052227    0.0093282 
C    -0.3312298    1.1373308    0.0020319 
H    -0.7444444    2.1331276    0.0137988 
H     1.8291039    1.3430312    0.0015079 
H     1.8232926   -1.3361393   -0.0092582 
H    -0.7694597   -2.0895463    0.0219845 
