10
Compound 013, distorted structure 07
N    -1.1391241    0.0331170    0.0293228 
H    -2.1064659    0.0503203   -0.0406137 
C    -0.2717164   -1.0695246   -0.0462361 
C     0.9186652   -0.6979336    0.0347183 
C     0.9498970    0.7105063    0.0258025 
C    -0.3114047    1.0759124    0.0048471 
H    -0.7825571    2.1525203    0.0071222 
H     1.7973922    1.4128720    0.0191240 
H     1.8771645   -1.3972031   -0.0147760 
H    -0.7468409   -2.0961184   -0.0525271 
