10
Compound 013, distorted structure 04
N    -1.0796813    0.0117063   -0.0146178 
H    -2.1298109   -0.0065320   -0.0437580 
C    -0.2774041   -1.1354117    0.0371274 
C     0.9732008   -0.6655417   -0.0605482 
C     1.0003852    0.7578854   -0.0287335 
C    -0.3671658    1.1727709    0.0177113 
H    -0.7525284    2.0620331   -0.0320593 
H     1.8533096    1.3162685    0.0494739 
H     1.7985225   -1.3582266    0.0096430 
H    -0.8172537   -2.1526861   -0.0135795 
