10
Compound 013, distorted structure 06
N    -1.0987430   -0.0967537   -0.0292777 
H    -2.0717474    0.0849778    0.0497860 
C    -0.2414508   -1.1355658   -0.0440445 
C     1.0341954   -0.6675389   -0.0487261 
C     0.9427014    0.7007187   -0.0401274 
C    -0.3865155    1.1588944    0.0679398 
H    -0.8055610    2.0495846   -0.0957673 
H     1.9145449    1.3651319   -0.0691124 
H     1.8988029   -1.3687750    0.0410748 
H    -0.7920254   -2.0732097   -0.0983961 
