10
Compound 013, distorted structure 09
N    -1.1120471    0.0905730    0.0563894 
H    -2.1554071   -0.0865468   -0.0288241 
C    -0.3709336   -1.1678575    0.0481642 
C     1.0259486   -0.6974718    0.0165946 
C     0.8975973    0.7819874   -0.0587851 
C    -0.4031329    1.0772929   -0.0540439 
H    -0.8249901    2.1218561   -0.0060413 
H     1.7881469    1.3491332   -0.0199385 
H     1.8952648   -1.3153235    0.0529104 
H    -0.7769714   -2.0237282   -0.0067791 
