Compound 021, distorted structure 06
 OpenBabel12112416273D

 20 21  0  0  1  0  0  0  0  0999 V2000
   -1.2466   -0.0431   -0.0107 N   0  0  1  0  0  0  0  0  0  0  0  0
   -0.8253    1.2324    0.7231 C   0  0  0  0  0  0  0  0  0  0  0  0
    0.8189    1.2200    0.6597 C   0  0  0  0  0  0  0  0  0  0  0  0
   -1.1739    1.1167    1.7047 H   0  0  0  0  0  0  0  0  0  0  0  0
   -1.2097    2.0474    0.1676 H   0  0  0  0  0  0  0  0  0  0  0  0
    1.3133    0.0157   -0.0371 N   0  0  2  0  0  0  0  0  0  0  0  0
    1.1366    1.2302    1.7075 H   0  0  0  0  0  0  0  0  0  0  0  0
    1.1837    2.0949    0.2326 H   0  0  0  0  0  0  0  0  0  0  0  0
    0.7460    0.0715   -1.4398 C   0  0  0  0  0  0  0  0  0  0  0  0
   -0.7881    0.0310   -1.3335 C   0  0  0  0  0  0  0  0  0  0  0  0
    1.2073   -0.8680   -1.9142 H   0  0  0  0  0  0  0  0  0  0  0  0
    1.1648    0.8860   -1.9117 H   0  0  0  0  0  0  0  0  0  0  0  0
   -1.1814   -0.8934   -1.9623 H   0  0  0  0  0  0  0  0  0  0  0  0
   -1.1777    0.8716   -1.9211 H   0  0  0  0  0  0  0  0  0  0  0  0
   -0.7880   -1.2113    0.7172 C   0  0  0  0  0  0  0  0  0  0  0  0
    0.7912   -1.2230    0.7156 C   0  0  0  0  0  0  0  0  0  0  0  0
   -1.2089   -2.0564    0.2073 H   0  0  0  0  0  0  0  0  0  0  0  0
   -1.1317   -1.2201    1.7333 H   0  0  0  0  0  0  0  0  0  0  0  0
    1.2349   -2.1007    0.2018 H   0  0  0  0  0  0  0  0  0  0  0  0
    1.2072   -1.1738    1.7170 H   0  0  0  0  0  0  0  0  0  0  0  0
  1 10  1  6  0  0  0
  1 15  1  0  0  0  0
  1  2  1  0  0  0  0
  2  4  1  0  0  0  0
  3  2  1  0  0  0  0
  3  7  1  0  0  0  0
  5  2  1  0  0  0  0
  6  9  1  6  0  0  0
  6  3  1  0  0  0  0
  6 16  1  0  0  0  0
  8  3  1  0  0  0  0
  9 10  1  0  0  0  0
 11  9  1  0  0  0  0
 12  9  1  0  0  0  0
 13 10  1  0  0  0  0
 14 10  1  0  0  0  0
 15 18  1  0  0  0  0
 16 15  1  0  0  0  0
 16 20  1  0  0  0  0
 17 15  1  0  0  0  0
 19 16  1  0  0  0  0
M  END
$$$$
