Compound 021, distorted structure 09
 OpenBabel12112416273D

 20 21  0  0  1  0  0  0  0  0999 V2000
   -1.2664   -0.0304    0.0383 N   0  0  1  0  0  0  0  0  0  0  0  0
   -0.8453    1.1969    0.7665 C   0  0  0  0  0  0  0  0  0  0  0  0
    0.8024    1.2512    0.6394 C   0  0  0  0  0  0  0  0  0  0  0  0
   -1.2211    1.2289    1.7981 H   0  0  0  0  0  0  0  0  0  0  0  0
   -1.1819    2.1036    0.2024 H   0  0  0  0  0  0  0  0  0  0  0  0
    1.2778    0.0264    0.0428 N   0  0  2  0  0  0  0  0  0  0  0  0
    1.1947    1.2050    1.6548 H   0  0  0  0  0  0  0  0  0  0  0  0
    1.2496    1.9891    0.1396 H   0  0  0  0  0  0  0  0  0  0  0  0
    0.6897   -0.0044   -1.3948 C   0  0  0  0  0  0  0  0  0  0  0  0
   -0.7023    0.0452   -1.4229 C   0  0  0  0  0  0  0  0  0  0  0  0
    1.2410   -0.7725   -1.9173 H   0  0  0  0  0  0  0  0  0  0  0  0
    1.1823    0.9145   -1.9600 H   0  0  0  0  0  0  0  0  0  0  0  0
   -1.2125   -0.9285   -1.8281 H   0  0  0  0  0  0  0  0  0  0  0  0
   -1.2022    0.9487   -1.9498 H   0  0  0  0  0  0  0  0  0  0  0  0
   -0.7477   -1.2619    0.6350 C   0  0  0  0  0  0  0  0  0  0  0  0
    0.8723   -1.1366    0.7282 C   0  0  0  0  0  0  0  0  0  0  0  0
   -1.1388   -2.1068    0.1109 H   0  0  0  0  0  0  0  0  0  0  0  0
   -1.2108   -1.2835    1.7154 H   0  0  0  0  0  0  0  0  0  0  0  0
    1.1192   -2.0881    0.0725 H   0  0  0  0  0  0  0  0  0  0  0  0
    1.1112   -1.2208    1.7615 H   0  0  0  0  0  0  0  0  0  0  0  0
  1 10  1  6  0  0  0
  1 15  1  0  0  0  0
  1  2  1  0  0  0  0
  2  4  1  0  0  0  0
  3  2  1  0  0  0  0
  3  7  1  0  0  0  0
  5  2  1  0  0  0  0
  6  9  1  6  0  0  0
  6  3  1  0  0  0  0
  6 16  1  0  0  0  0
  8  3  1  0  0  0  0
 10  9  1  0  0  0  0
 11  9  1  0  0  0  0
 12  9  1  0  0  0  0
 13 10  1  0  0  0  0
 14 10  1  0  0  0  0
 15 16  1  0  0  0  0
 15 18  1  0  0  0  0
 16 20  1  0  0  0  0
 17 15  1  0  0  0  0
 19 16  1  0  0  0  0
M  END
$$$$
