Compound 022, distorted structure 04
 OpenBabel12112412253D

  8  7  0  0  0  0  0  0  0  0999 V2000
    0.6488    0.3974    0.0190 C   0  0  0  0  0  0  0  0  0  0  0  0
    1.6941   -0.0480    0.0510 O   0  0  0  0  0  0  0  0  0  0  0  0
   -0.6547   -0.4235   -0.0284 C   0  0  0  0  0  0  0  0  0  0  0  0
   -1.8862    0.1549    0.0185 C   0  0  0  0  0  0  0  0  0  0  0  0
   -2.7537   -0.3892   -0.0348 H   0  0  0  0  0  0  0  0  0  0  0  0
   -1.9651    1.2867   -0.0308 H   0  0  0  0  0  0  0  0  0  0  0  0
   -0.5589   -1.5184    0.0363 H   0  0  0  0  0  0  0  0  0  0  0  0
    0.4685    1.5266   -0.0301 H   0  0  0  0  0  0  0  0  0  0  0  0
  1  2  2  0  0  0  0
  3  4  2  0  0  0  0
  3  1  1  0  0  0  0
  3  7  1  0  0  0  0
  5  4  1  0  0  0  0
  6  4  1  0  0  0  0
  8  1  1  0  0  0  0
M  END
$$$$
