Compound 023, distorted structure 09
 OpenBabel12112416273D

  8  8  0  0  0  0  0  0  0  0999 V2000
   -0.2129   -1.1341   -0.0274 C   0  0  0  0  0  0  0  0  0  0  0  0
   -1.0075   -0.1022   -0.0903 C   0  0  0  0  0  0  0  0  0  0  0  0
   -0.4886    0.9394    0.0776 O   0  0  0  0  0  0  0  0  0  0  0  0
    0.8893    0.7153   -0.1418 N   0  0  0  0  0  0  0  0  0  0  0  0
    1.0412   -0.6106   -0.1115 C   0  0  0  0  0  0  0  0  0  0  0  0
   -0.1716   -2.2700   -0.0048 H   0  0  0  0  0  0  0  0  0  0  0  0
   -2.2144   -0.2979   -0.0820 H   0  0  0  0  0  0  0  0  0  0  0  0
    2.0766   -0.9188    0.0492 H   0  0  0  0  0  0  0  0  0  0  0  0
  1  6  1  0  0  0  0
  2  7  1  0  0  0  0
  2  1  2  0  0  0  0
  2  3  1  0  0  0  0
  4  5  2  0  0  0  0
  4  3  1  0  0  0  0
  5  1  1  0  0  0  0
  5  8  1  0  0  0  0
M  END
$$$$
