Compound 025, distorted structure 07
 OpenBabel12112416273D

  9  9  0  0  0  0  0  0  0  0999 V2000
   -1.0022    0.6347    0.0439 C   0  0  0  0  0  0  0  0  0  0  0  0
    0.2822    1.1065   -0.0120 C   0  0  0  0  0  0  0  0  0  0  0  0
    1.0526    0.0519   -0.0678 O   0  0  0  0  0  0  0  0  0  0  0  0
    0.2277   -1.0241    0.0406 C   0  0  0  0  0  0  0  0  0  0  0  0
   -1.0124   -0.7510   -0.0480 C   0  0  0  0  0  0  0  0  0  0  0  0
   -1.8500    1.4388    0.0838 H   0  0  0  0  0  0  0  0  0  0  0  0
    0.8643    2.0279    0.0622 H   0  0  0  0  0  0  0  0  0  0  0  0
    0.8674   -2.0710    0.0610 H   0  0  0  0  0  0  0  0  0  0  0  0
   -1.7802   -1.3797   -0.0449 H   0  0  0  0  0  0  0  0  0  0  0  0
  1  6  1  0  0  0  0
  2  1  2  0  0  0  0
  2  7  1  0  0  0  0
  3  2  1  0  0  0  0
  3  4  1  0  0  0  0
  4  8  1  0  0  0  0
  5  9  1  0  0  0  0
  5  4  2  0  0  0  0
  5  1  1  0  0  0  0
M  END
$$$$
