Compound 026, distorted structure 04
 OpenBabel12112416273D

  9  8  0  0  0  0  0  0  0  0999 V2000
   -1.2313   -1.1999    0.0308 C   0  0  0  0  0  0  0  0  0  0  0  0
   -0.4842    0.0855    0.0593 C   0  0  0  0  0  0  0  0  0  0  0  0
   -0.9447   -1.7580    0.9233 H   0  0  0  0  0  0  0  0  0  0  0  0
   -0.8401   -1.8620   -0.9026 H   0  0  0  0  0  0  0  0  0  0  0  0
   -2.3350   -1.0951    0.0229 H   0  0  0  0  0  0  0  0  0  0  0  0
    0.9509    0.0582    0.0426 C   0  0  0  0  0  0  0  0  0  0  0  0
    2.1409   -0.0442   -0.0713 C   0  0  0  0  0  0  0  0  0  0  0  0
    3.2867   -0.1567    0.0016 H   0  0  0  0  0  0  0  0  0  0  0  0
   -1.0114    1.1497    0.0056 O   0  0  0  0  0  0  0  0  0  0  0  0
  1  2  1  0  0  0  0
  1  3  1  0  0  0  0
  4  1  1  0  0  0  0
  5  1  1  0  0  0  0
  6  2  1  0  0  0  0
  7  8  1  0  0  0  0
  7  6  3  0  0  0  0
  9  2  2  0  0  0  0
M  END
$$$$
