Compound 026, distorted structure 09
 OpenBabel12112416273D

  9  8  0  0  1  0  0  0  0  0999 V2000
   -1.2449   -1.1032    0.1630 C   0  0  0  0  0  0  0  0  0  0  0  0
   -0.4734    0.0997    0.0703 C   0  0  2  0  0  3  0  0  0  0  0  0
   -0.9169   -1.8604    0.9790 H   0  0  0  0  0  0  0  0  0  0  0  0
   -0.8048   -1.7807   -0.8035 H   0  0  0  0  0  0  0  0  0  0  0  0
   -2.4624   -0.9176   -0.0470 H   0  0  0  0  0  0  0  0  0  0  0  0
    0.8230    0.1399    0.0654 C   0  0  0  0  0  0  0  0  0  0  0  0
    2.0348    0.1184   -0.0696 C   0  0  0  0  0  0  0  0  0  0  0  0
    3.2639   -0.1011   -0.0659 H   0  0  0  0  0  0  0  0  0  0  0  0
   -1.1455    1.1994    0.1975 O   0  0  0  0  0  1  0  0  0  0  0  0
  1  3  1  0  0  0  0
  2  1  1  0  0  0  0
  2  9  1  1  0  0  0
  4  1  1  0  0  0  0
  5  1  1  0  0  0  0
  6  2  1  0  0  0  0
  7  8  1  0  0  0  0
  7  6  3  0  0  0  0
M  END
$$$$
