Compound 027, distorted structure 01
 OpenBabel12112412253D

  9  8  0  0  0  0  0  0  0  0999 V2000
   -2.2370   -0.1559   -0.0129 C   0  0  0  0  0  0  0  0  0  0  0  0
   -0.9514   -0.3970   -0.0095 C   0  0  0  0  0  0  0  0  0  0  0  0
   -0.0677    0.7206    0.0224 O   0  0  0  0  0  0  0  0  0  0  0  0
    1.2479    0.4421    0.0261 C   0  0  0  0  0  0  0  0  0  0  0  0
    1.7471   -0.6282    0.0013 O   0  0  0  0  0  0  0  0  0  0  0  0
    1.8174    1.4169   -0.0066 H   0  0  0  0  0  0  0  0  0  0  0  0
   -0.4980   -1.3517    0.0105 H   0  0  0  0  0  0  0  0  0  0  0  0
   -2.9589   -0.9650   -0.0010 H   0  0  0  0  0  0  0  0  0  0  0  0
   -2.6383    0.8410    0.0149 H   0  0  0  0  0  0  0  0  0  0  0  0
  1  2  2  0  0  0  0
  1  8  1  0  0  0  0
  1  9  1  0  0  0  0
  2  7  1  0  0  0  0
  2  3  1  0  0  0  0
  3  4  1  0  0  0  0
  5  4  2  0  0  0  0
  6  4  1  0  0  0  0
M  END
$$$$
