Compound 027, distorted structure 03
 OpenBabel12112416273D

  9  8  0  0  0  0  0  0  0  0999 V2000
   -2.3027   -0.0962   -0.0250 C   0  0  0  0  0  0  0  0  0  0  0  0
   -0.9593   -0.3378    0.0497 C   0  0  0  0  0  0  0  0  0  0  0  0
   -0.0975    0.7045    0.0293 O   0  0  0  0  0  0  0  0  0  0  0  0
    1.2668    0.4292   -0.0342 C   0  0  0  0  0  0  0  0  0  0  0  0
    1.7841   -0.5953    0.0284 O   0  0  0  0  0  0  0  0  0  0  0  0
    1.7466    1.4108   -0.0176 H   0  0  0  0  0  0  0  0  0  0  0  0
   -0.4365   -1.3183    0.0184 H   0  0  0  0  0  0  0  0  0  0  0  0
   -2.9405   -0.9279    0.0270 H   0  0  0  0  0  0  0  0  0  0  0  0
   -2.6479    0.9106    0.0186 H   0  0  0  0  0  0  0  0  0  0  0  0
  1  9  1  0  0  0  0
  1  8  1  0  0  0  0
  1  2  2  0  0  0  0
  3  2  1  0  0  0  0
  4  6  1  0  0  0  0
  4  5  2  0  0  0  0
  4  3  1  0  0  0  0
  7  2  1  0  0  0  0
M  END
$$$$
