Compound 027, distorted structure 05
 OpenBabel12112412253D

  9  8  0  0  0  0  0  0  0  0999 V2000
   -2.2993   -0.1802    0.0007 C   0  0  0  0  0  0  0  0  0  0  0  0
   -0.9440   -0.3474    0.0518 C   0  0  0  0  0  0  0  0  0  0  0  0
   -0.0865    0.6797    0.0404 O   0  0  0  0  0  0  0  0  0  0  0  0
    1.3276    0.4658   -0.0164 C   0  0  0  0  0  0  0  0  0  0  0  0
    1.7381   -0.5783   -0.0245 O   0  0  0  0  0  0  0  0  0  0  0  0
    1.7860    1.4269   -0.0024 H   0  0  0  0  0  0  0  0  0  0  0  0
   -0.5159   -1.3746   -0.0378 H   0  0  0  0  0  0  0  0  0  0  0  0
   -2.9483   -0.9805    0.0355 H   0  0  0  0  0  0  0  0  0  0  0  0
   -2.7080    0.9274    0.0438 H   0  0  0  0  0  0  0  0  0  0  0  0
  1  8  1  0  0  0  0
  1  9  1  0  0  0  0
  1  2  2  0  0  0  0
  3  2  1  0  0  0  0
  4  6  1  0  0  0  0
  4  3  1  0  0  0  0
  5  4  2  0  0  0  0
  7  2  1  0  0  0  0
M  END
$$$$
