Compound 028, distorted structure 08
 OpenBabel12112412253D

 10  9  0  0  0  0  0  0  0  0999 V2000
    1.2491    0.6077    0.0721 C   0  0  0  0  0  0  0  0  0  0  0  0
   -0.0324   -0.0534    0.0630 C   0  0  0  0  0  3  0  0  0  0  0  0
    0.1032   -1.3961    0.0469 O   0  0  0  0  0  1  0  0  0  0  0  0
   -1.3854    0.7847    0.0155 C   0  0  0  0  0  0  0  0  0  0  0  0
    1.3546    1.4881   -0.7590 H   0  0  0  0  0  0  0  0  0  0  0  0
    2.2098    0.0249   -0.1823 H   0  0  0  0  0  0  0  0  0  0  0  0
    1.4058    1.2402    0.9340 H   0  0  0  0  0  0  0  0  0  0  0  0
   -1.3364    1.0791   -1.0465 H   0  0  0  0  0  0  0  0  0  0  0  0
   -1.3611    1.5194    0.7186 H   0  0  0  0  0  0  0  0  0  0  0  0
   -2.2107    0.1472    0.2081 H   0  0  0  0  0  0  0  0  0  0  0  0
  1  7  1  0  0  0  0
  2  1  1  0  0  0  0
  3  2  1  0  0  0  0
  4  2  1  0  0  0  0
  4 10  1  0  0  0  0
  4  9  1  0  0  0  0
  5  1  1  0  0  0  0
  6  1  1  0  0  0  0
  8  4  1  0  0  0  0
M  END
$$$$
