Compound 028, distorted structure 03
 OpenBabel12112416273D

 10  9  0  0  0  0  0  0  0  0999 V2000
    1.3113    0.6741   -0.0218 C   0  0  0  0  0  0  0  0  0  0  0  0
   -0.0072   -0.0930   -0.0007 C   0  0  0  0  0  0  0  0  0  0  0  0
    0.0281   -1.3350   -0.0045 O   0  0  0  0  0  0  0  0  0  0  0  0
   -1.2856    0.7177   -0.0218 C   0  0  0  0  0  0  0  0  0  0  0  0
    1.2210    1.5093   -0.7245 H   0  0  0  0  0  0  0  0  0  0  0  0
    2.1379    0.0630   -0.2011 H   0  0  0  0  0  0  0  0  0  0  0  0
    1.4192    1.1326    1.0066 H   0  0  0  0  0  0  0  0  0  0  0  0
   -1.4496    1.1737   -0.9827 H   0  0  0  0  0  0  0  0  0  0  0  0
   -1.2606    1.4952    0.6993 H   0  0  0  0  0  0  0  0  0  0  0  0
   -2.1464    0.0477    0.2503 H   0  0  0  0  0  0  0  0  0  0  0  0
  1  2  1  0  0  0  0
  1  7  1  0  0  0  0
  3  2  2  0  0  0  0
  4  2  1  0  0  0  0
  4 10  1  0  0  0  0
  4  9  1  0  0  0  0
  5  1  1  0  0  0  0
  6  1  1  0  0  0  0
  8  4  1  0  0  0  0
M  END
$$$$
