Compound 030, distorted structure 05
 OpenBabel12112412253D

 10  9  0  0  0  0  0  0  0  0999 V2000
    1.9211    0.0922   -0.0115 C   0  0  0  0  0  0  0  0  0  0  0  0
    0.7084   -0.8024   -0.0064 C   0  0  0  0  0  0  0  0  0  0  0  0
   -0.5005    0.0172    0.0375 N   0  0  0  0  0  0  0  0  0  0  0  0
   -1.6246   -0.5576    0.0057 O   0  0  0  0  0  0  0  0  0  0  0  0
   -0.4960    1.1887   -0.0135 O   0  0  0  0  0  0  0  0  0  0  0  0
    2.0608    0.6356   -0.8903 H   0  0  0  0  0  0  0  0  0  0  0  0
    2.8204   -0.5745    0.0240 H   0  0  0  0  0  0  0  0  0  0  0  0
    2.0041    0.7337    0.9136 H   0  0  0  0  0  0  0  0  0  0  0  0
    0.6200   -1.3672    0.8216 H   0  0  0  0  0  0  0  0  0  0  0  0
    0.6100   -1.4514   -0.9439 H   0  0  0  0  0  0  0  0  0  0  0  0
  1  2  1  0  0  0  0
  1  7  1  0  0  0  0
  1  8  1  0  0  0  0
  2  3  1  0  0  0  0
  2  9  1  0  0  0  0
  4  3  2  0  0  0  0
  5  3  2  0  0  0  0
  6  1  1  0  0  0  0
 10  2  1  0  0  0  0
M  END
$$$$
