Compound 031, distorted structure 01
 OpenBabel12112412253D

 11 11  0  0  0  0  0  0  0  0999 V2000
    1.5343   -0.0168    0.0004 C   0  0  0  0  0  0  0  0  0  0  0  0
    0.4394   -1.0875    0.0155 C   0  0  0  0  0  0  0  0  0  0  0  0
   -0.6010   -0.0127   -0.0126 C   0  0  0  0  0  0  0  0  0  0  0  0
   -1.8149    0.0075    0.0184 O   0  0  0  0  0  0  0  0  0  0  0  0
    0.4461    1.1045    0.0086 C   0  0  0  0  0  0  0  0  0  0  0  0
    2.2010    0.0040   -0.8713 H   0  0  0  0  0  0  0  0  0  0  0  0
    2.1987    0.0004    0.8730 H   0  0  0  0  0  0  0  0  0  0  0  0
    0.4009   -1.7264    0.8809 H   0  0  0  0  0  0  0  0  0  0  0  0
    0.4125   -1.7583   -0.8765 H   0  0  0  0  0  0  0  0  0  0  0  0
    0.4135    1.7433    0.8674 H   0  0  0  0  0  0  0  0  0  0  0  0
    0.4207    1.7310   -0.9004 H   0  0  0  0  0  0  0  0  0  0  0  0
  1  5  1  0  0  0  0
  1  2  1  0  0  0  0
  1  7  1  0  0  0  0
  2  8  1  0  0  0  0
  3  5  1  0  0  0  0
  3  2  1  0  0  0  0
  3  4  2  0  0  0  0
  5 10  1  0  0  0  0
  6  1  1  0  0  0  0
  9  2  1  0  0  0  0
 11  5  1  0  0  0  0
M  END
$$$$
