Compound 032, distorted structure 07
 OpenBabel12112412253D

 11 11  0  0  0  0  0  0  0  0999 V2000
   -1.0939   -0.0234    0.0594 O   0  0  0  0  0  0  0  0  0  0  0  0
   -0.3894    1.2510    0.0602 C   0  0  0  0  0  0  0  0  0  0  0  0
    0.9823    0.6579   -0.0596 C   0  0  0  0  0  0  0  0  0  0  0  0
    1.0128   -0.5820   -0.0112 C   0  0  0  0  0  0  0  0  0  0  0  0
   -0.2820   -1.2494   -0.0264 C   0  0  0  0  0  0  0  0  0  0  0  0
   -0.5698   -1.7067   -0.8831 H   0  0  0  0  0  0  0  0  0  0  0  0
   -0.5033   -1.7431    0.9445 H   0  0  0  0  0  0  0  0  0  0  0  0
    1.8602   -1.3029    0.0055 H   0  0  0  0  0  0  0  0  0  0  0  0
    2.0013    1.3916   -0.0267 H   0  0  0  0  0  0  0  0  0  0  0  0
   -0.5048    1.7545   -0.8988 H   0  0  0  0  0  0  0  0  0  0  0  0
   -0.5920    1.8454    0.9340 H   0  0  0  0  0  0  0  0  0  0  0  0
  1  2  1  0  0  0  0
  2 11  1  0  0  0  0
  3  9  1  0  0  0  0
  3  4  2  0  0  0  0
  3  2  1  0  0  0  0
  4  8  1  0  0  0  0
  5  4  1  0  0  0  0
  5  1  1  0  0  0  0
  5  7  1  0  0  0  0
  6  5  1  0  0  0  0
 10  2  1  0  0  0  0
M  END
$$$$
