Compound 032, distorted structure 06
 OpenBabel12112412253D

 11 11  0  0  0  0  0  0  0  0999 V2000
   -1.0996    0.0495   -0.0969 O   0  0  0  0  0  0  0  0  0  0  0  0
   -0.2603    1.2275    0.0827 C   0  0  0  0  0  0  0  0  0  0  0  0
    1.1095    0.6609    0.0939 C   0  0  0  0  0  0  0  0  0  0  0  0
    1.0777   -0.6834    0.0673 C   0  0  0  0  0  0  0  0  0  0  0  0
   -0.3930   -1.2796    0.0288 C   0  0  0  0  0  0  0  0  0  0  0  0
   -0.4758   -1.8127   -0.8628 H   0  0  0  0  0  0  0  0  0  0  0  0
   -0.6462   -1.7344    0.8400 H   0  0  0  0  0  0  0  0  0  0  0  0
    1.9073   -1.3970    0.0828 H   0  0  0  0  0  0  0  0  0  0  0  0
    2.0040    1.3807    0.0458 H   0  0  0  0  0  0  0  0  0  0  0  0
   -0.5733    1.7889   -0.7820 H   0  0  0  0  0  0  0  0  0  0  0  0
   -0.6450    1.8401    0.9837 H   0  0  0  0  0  0  0  0  0  0  0  0
  1  5  1  0  0  0  0
  1  2  1  0  0  0  0
  2  3  1  0  0  0  0
  2 11  1  0  0  0  0
  4  8  1  0  0  0  0
  4  3  2  0  0  0  0
  5  4  1  0  0  0  0
  5  7  1  0  0  0  0
  6  5  1  0  0  0  0
  9  3  1  0  0  0  0
 10  2  1  0  0  0  0
M  END
$$$$
