Compound 033, distorted structure 06
 OpenBabel12112412253D

 11 10  0  0  0  0  0  0  0  0999 V2000
    1.7857    0.7016   -0.0428 C   0  0  0  0  0  0  0  0  0  0  0  0
    0.3859   -0.0397    0.1369 C   0  0  0  0  0  0  0  0  0  0  0  0
    0.2900   -1.3258    0.4423 O   0  0  0  0  0  0  0  0  0  0  0  0
   -0.5493    0.8079   -0.2111 O   0  0  0  0  0  0  0  0  0  0  0  0
   -1.8993    0.1878   -0.0613 C   0  0  0  0  0  0  0  0  0  0  0  0
    2.2363    0.5588    0.8591 H   0  0  0  0  0  0  0  0  0  0  0  0
    1.7044    1.6468   -0.3042 H   0  0  0  0  0  0  0  0  0  0  0  0
    2.4009    0.1405   -0.6881 H   0  0  0  0  0  0  0  0  0  0  0  0
   -2.1604   -0.2455    0.8809 H   0  0  0  0  0  0  0  0  0  0  0  0
   -1.9382   -0.6453   -0.7625 H   0  0  0  0  0  0  0  0  0  0  0  0
   -2.6968    0.9169   -0.3199 H   0  0  0  0  0  0  0  0  0  0  0  0
  1  2  1  0  0  0  0
  1  6  1  0  0  0  0
  2  3  2  0  0  0  0
  4  5  1  0  0  0  0
  4  2  1  0  0  0  0
  5  9  1  0  0  0  0
  7  1  1  0  0  0  0
  8  1  1  0  0  0  0
 10  5  1  0  0  0  0
 11  5  1  0  0  0  0
M  END
$$$$
