Compound 033, distorted structure 05
 OpenBabel12112416273D

 11 10  0  0  0  0  0  0  0  0999 V2000
    1.7763    0.6657   -0.0447 C   0  0  0  0  0  0  0  0  0  0  0  0
    0.4291   -0.0832    0.0729 C   0  0  0  0  0  0  0  0  0  0  0  0
    0.2691   -1.2220    0.4391 O   0  0  0  0  0  0  0  0  0  0  0  0
   -0.5505    0.7968   -0.2186 O   0  0  0  0  0  0  0  0  0  0  0  0
   -1.8395    0.1205   -0.0027 C   0  0  0  0  0  0  0  0  0  0  0  0
    2.2260    0.6243    0.9545 H   0  0  0  0  0  0  0  0  0  0  0  0
    1.5661    1.6047   -0.3762 H   0  0  0  0  0  0  0  0  0  0  0  0
    2.3116    0.0815   -0.8272 H   0  0  0  0  0  0  0  0  0  0  0  0
   -2.0534   -0.1987    0.9010 H   0  0  0  0  0  0  0  0  0  0  0  0
   -1.9250   -0.6880   -0.7675 H   0  0  0  0  0  0  0  0  0  0  0  0
   -2.6887    0.8380   -0.2525 H   0  0  0  0  0  0  0  0  0  0  0  0
  1  2  1  0  0  0  0
  1  6  1  0  0  0  0
  2  3  2  0  0  0  0
  4  5  1  0  0  0  0
  4  2  1  0  0  0  0
  5  9  1  0  0  0  0
  7  1  1  0  0  0  0
  8  1  1  0  0  0  0
 10  5  1  0  0  0  0
 11  5  1  0  0  0  0
M  END
$$$$
