Compound 033, distorted structure 08
 OpenBabel12112412253D

 11 10  0  0  0  0  0  0  0  0999 V2000
    1.7820    0.7608    0.0582 C   0  0  0  0  0  0  0  0  0  0  0  0
    0.4272   -0.2011    0.0869 C   0  0  0  0  0  0  0  0  0  0  0  0
    0.2257   -1.2987    0.4084 O   0  0  0  0  0  0  0  0  0  0  0  0
   -0.4875    0.7852   -0.1280 O   0  0  0  0  0  0  0  0  0  0  0  0
   -2.0370    0.0919   -0.1705 C   0  0  0  0  0  0  0  0  0  0  0  0
    2.2863    0.7262    0.9966 H   0  0  0  0  0  0  0  0  0  0  0  0
    1.6086    1.7918   -0.2880 H   0  0  0  0  0  0  0  0  0  0  0  0
    2.2445    0.2214   -0.7239 H   0  0  0  0  0  0  0  0  0  0  0  0
   -2.1237   -0.3265    0.8426 H   0  0  0  0  0  0  0  0  0  0  0  0
   -2.0344   -0.7781   -0.8700 H   0  0  0  0  0  0  0  0  0  0  0  0
   -2.7143    0.9598   -0.2179 H   0  0  0  0  0  0  0  0  0  0  0  0
  1  2  1  0  0  0  0
  1  6  1  0  0  0  0
  2  3  2  0  0  0  0
  4  2  1  0  0  0  0
  5  4  1  0  0  0  0
  5  9  1  0  0  0  0
  7  1  1  0  0  0  0
  8  1  1  0  0  0  0
 10  5  1  0  0  0  0
 11  5  1  0  0  0  0
M  END
$$$$
