Compound 034, distorted structure 06
 OpenBabel12112416273D

 11 11  0  0  0  0  0  0  0  0999 V2000
    0.7228    1.0470    0.0698 C   0  0  0  0  0  0  0  0  0  0  0  0
    1.2430    1.2828    1.0725 H   0  0  0  0  0  0  0  0  0  0  0  0
    1.2767    1.6160   -0.7766 H   0  0  0  0  0  0  0  0  0  0  0  0
    1.0565   -0.3026   -0.2201 O   0  0  0  0  0  0  0  0  0  0  0  0
    0.0336   -1.0420    0.1771 C   0  0  0  0  0  0  0  0  0  0  0  0
   -1.0613   -0.3739   -0.2063 O   0  0  0  0  0  0  0  0  0  0  0  0
   -0.7598    1.0534    0.0809 C   0  0  0  0  0  0  0  0  0  0  0  0
   -1.0891    1.3000    1.1211 H   0  0  0  0  0  0  0  0  0  0  0  0
   -1.2419    1.6404   -0.6664 H   0  0  0  0  0  0  0  0  0  0  0  0
   -0.0238   -1.2632    1.3741 H   0  0  0  0  0  0  0  0  0  0  0  0
   -0.0113   -2.1742   -0.3533 H   0  0  0  0  0  0  0  0  0  0  0  0
  1  7  1  0  0  0  0
  1  2  1  0  0  0  0
  3  1  1  0  0  0  0
  4  1  1  0  0  0  0
  4  5  1  0  0  0  0
  5 10  1  0  0  0  0
  6  7  1  0  0  0  0
  6  5  1  0  0  0  0
  7  8  1  0  0  0  0
  9  7  1  0  0  0  0
 11  5  1  0  0  0  0
M  END
$$$$
