Compound 034, distorted structure 05
 OpenBabel12112416273D

 11 11  0  0  0  0  0  0  0  0999 V2000
    0.8072    0.9778    0.0373 C   0  0  0  0  0  0  0  0  0  0  0  0
    1.2425    1.2322    1.1096 H   0  0  0  0  0  0  0  0  0  0  0  0
    1.2822    1.6577   -0.7006 H   0  0  0  0  0  0  0  0  0  0  0  0
    1.1140   -0.3096   -0.1897 O   0  0  0  0  0  0  0  0  0  0  0  0
    0.0478   -1.0825    0.1487 C   0  0  0  0  0  0  0  0  0  0  0  0
   -1.0762   -0.3721   -0.2116 O   0  0  0  0  0  0  0  0  0  0  0  0
   -0.7219    0.9918    0.1391 C   0  0  0  0  0  0  0  0  0  0  0  0
   -1.2600    1.2824    0.9990 H   0  0  0  0  0  0  0  0  0  0  0  0
   -1.1551    1.5111   -0.6927 H   0  0  0  0  0  0  0  0  0  0  0  0
    0.0852   -1.3306    1.2362 H   0  0  0  0  0  0  0  0  0  0  0  0
   -0.0128   -2.1721   -0.2295 H   0  0  0  0  0  0  0  0  0  0  0  0
  1  7  1  0  0  0  0
  1  2  1  0  0  0  0
  3  1  1  0  0  0  0
  4  1  1  0  0  0  0
  4  5  1  0  0  0  0
  5 10  1  0  0  0  0
  6  7  1  0  0  0  0
  6  5  1  0  0  0  0
  7  8  1  0  0  0  0
  9  7  1  0  0  0  0
 11  5  1  0  0  0  0
M  END
$$$$
