Compound 036, distorted structure 02
 OpenBabel12112412253D

 12 11  0  0  0  0  0  0  0  0999 V2000
    1.9778   -0.1173   -0.0530 C   0  0  0  0  0  0  0  0  0  0  0  0
    0.5637    0.5329    0.0062 C   0  0  0  0  0  0  0  0  0  0  0  0
   -0.5302   -0.4962   -0.0348 C   0  0  0  0  0  0  0  0  0  0  0  0
   -0.4287   -1.0860   -0.9563 H   0  0  0  0  0  0  0  0  0  0  0  0
   -0.4124   -1.2009    0.8154 H   0  0  0  0  0  0  0  0  0  0  0  0
   -1.7718    0.1669    0.0060 O   0  0  0  0  0  0  0  0  0  0  0  0
   -2.4743   -0.4780   -0.0036 H   0  0  0  0  0  0  0  0  0  0  0  0
    0.4397    1.1410    0.9697 H   0  0  0  0  0  0  0  0  0  0  0  0
    0.4222    1.2310   -0.7827 H   0  0  0  0  0  0  0  0  0  0  0  0
    2.1225   -0.6761   -0.9467 H   0  0  0  0  0  0  0  0  0  0  0  0
    2.7081    0.6610   -0.0217 H   0  0  0  0  0  0  0  0  0  0  0  0
    2.0869   -0.7686    0.8074 H   0  0  0  0  0  0  0  0  0  0  0  0
  1 11  1  0  0  0  0
  1  2  1  0  0  0  0
  1 12  1  0  0  0  0
  2  8  1  0  0  0  0
  3  6  1  0  0  0  0
  3  2  1  0  0  0  0
  3  5  1  0  0  0  0
  4  3  1  0  0  0  0
  7  6  1  0  0  0  0
  9  2  1  0  0  0  0
 10  1  1  0  0  0  0
M  END
$$$$
