Compound 037, distorted structure 08
 OpenBabel12112416273D

 12 11  0  0  0  0  0  0  0  0999 V2000
    1.7348   -0.8545   -0.0631 C   0  0  0  0  0  0  0  0  0  0  0  0
    0.3889    0.0470    0.0961 N   0  0  0  0  0  0  0  0  0  0  0  0
    0.4854    1.3609    0.0973 C   0  0  0  0  0  0  0  0  0  0  0  0
   -0.7160   -0.5898    0.0411 C   0  0  0  0  0  0  0  0  0  0  0  0
   -1.9235   -0.0136    0.0608 O   0  0  0  0  0  0  0  0  0  0  0  0
    1.3412   -1.8942   -0.0140 H   0  0  0  0  0  0  0  0  0  0  0  0
    2.3615   -0.5132    0.8752 H   0  0  0  0  0  0  0  0  0  0  0  0
    2.2931   -0.6308   -0.9236 H   0  0  0  0  0  0  0  0  0  0  0  0
    1.1227    1.8366   -0.8097 H   0  0  0  0  0  0  0  0  0  0  0  0
    1.0028    1.7905    0.8733 H   0  0  0  0  0  0  0  0  0  0  0  0
   -0.4664    1.8633   -0.0046 H   0  0  0  0  0  0  0  0  0  0  0  0
   -0.7451   -1.7825    0.0991 H   0  0  0  0  0  0  0  0  0  0  0  0
  1  6  1  0  0  0  0
  1  2  1  0  0  0  0
  1  7  1  0  0  0  0
  2  3  1  0  0  0  0
  3 10  1  0  0  0  0
  4  5  2  0  0  0  0
  4  2  1  0  0  0  0
  4 12  1  0  0  0  0
  8  1  1  0  0  0  0
  9  3  1  0  0  0  0
 11  3  1  0  0  0  0
M  END
$$$$
