Compound 038 optimized with r2SCAN-3c
 OpenBabel12112416273D

 12 12  0  0  0  0  0  0  0  0999 V2000
    1.5287    0.6576   -0.0001 C   0  0  0  0  0  0  0  0  0  0  0  0
    0.0983    1.2178    0.0001 C   0  0  0  0  0  0  0  0  0  0  0  0
   -0.8188   -0.0104    0.0001 C   0  0  0  0  0  0  0  0  0  0  0  0
   -2.0327    0.0098   -0.0004 O   0  0  0  0  0  0  0  0  0  0  0  0
    0.0517   -1.2026    0.0004 C   0  0  0  0  0  0  0  0  0  0  0  0
    1.3386   -0.8347   -0.0002 C   0  0  0  0  0  0  0  0  0  0  0  0
    2.1090    0.9715    0.8770 H   0  0  0  0  0  0  0  0  0  0  0  0
    2.1089    0.9718   -0.8771 H   0  0  0  0  0  0  0  0  0  0  0  0
   -0.1260    1.8292   -0.8796 H   0  0  0  0  0  0  0  0  0  0  0  0
   -0.1258    1.8291    0.8800 H   0  0  0  0  0  0  0  0  0  0  0  0
   -0.3395   -2.2134    0.0006 H   0  0  0  0  0  0  0  0  0  0  0  0
    2.1829   -1.5192   -0.0004 H   0  0  0  0  0  0  0  0  0  0  0  0
  1  2  1  0  0  0  0
  1  7  1  0  0  0  0
  2  3  1  0  0  0  0
  2 10  1  0  0  0  0
  3  5  1  0  0  0  0
  4  3  2  0  0  0  0
  5 11  1  0  0  0  0
  6  1  1  0  0  0  0
  6  5  2  0  0  0  0
  8  1  1  0  0  0  0
  9  2  1  0  0  0  0
 12  6  1  0  0  0  0
M  END
$$$$
