Compound 039, distorted structure 01
 OpenBabel12112416273D

 12 12  0  0  0  0  0  0  0  0999 V2000
    1.4897   -0.6964   -0.2088 C   0  0  0  0  0  0  0  0  0  0  0  0
    0.1361   -1.2415    0.1714 C   0  0  0  0  0  0  0  0  0  0  0  0
   -0.8292   -0.0600   -0.0071 C   0  0  0  0  0  0  0  0  0  0  0  0
   -2.0112   -0.0581   -0.1013 O   0  0  0  0  0  0  0  0  0  0  0  0
   -0.0895    1.0856   -0.0585 O   0  0  0  0  0  0  0  0  0  0  0  0
    1.3268    0.7897    0.1118 C   0  0  0  0  0  0  0  0  0  0  0  0
    1.6452   -0.8143   -1.2990 H   0  0  0  0  0  0  0  0  0  0  0  0
    2.3197   -1.1280    0.3104 H   0  0  0  0  0  0  0  0  0  0  0  0
    0.0771   -1.5283    1.2146 H   0  0  0  0  0  0  0  0  0  0  0  0
   -0.2298   -2.0898   -0.4245 H   0  0  0  0  0  0  0  0  0  0  0  0
    1.5675    1.0170    1.1766 H   0  0  0  0  0  0  0  0  0  0  0  0
    1.8882    1.4919   -0.5067 H   0  0  0  0  0  0  0  0  0  0  0  0
  1  6  1  0  0  0  0
  1  2  1  0  0  0  0
  1  8  1  0  0  0  0
  2  9  1  0  0  0  0
  3  2  1  0  0  0  0
  4  3  2  0  0  0  0
  5  3  1  0  0  0  0
  5  6  1  0  0  0  0
  6 11  1  0  0  0  0
  7  1  1  0  0  0  0
 10  2  1  0  0  0  0
 12  6  1  0  0  0  0
M  END
$$$$
