Compound 039, distorted structure 06
 OpenBabel12112412253D

 12 12  0  0  0  0  0  0  0  0999 V2000
    1.4796   -0.7417   -0.1643 C   0  0  0  0  0  0  0  0  0  0  0  0
    0.0847   -1.1762    0.2081 C   0  0  0  0  0  0  0  0  0  0  0  0
   -0.7896   -0.0522   -0.0479 C   0  0  0  0  0  0  0  0  0  0  0  0
   -2.0315   -0.0052   -0.1572 O   0  0  0  0  0  0  0  0  0  0  0  0
   -0.0748    1.1537   -0.0323 O   0  0  0  0  0  0  0  0  0  0  0  0
    1.3141    0.8692    0.1110 C   0  0  0  0  0  0  0  0  0  0  0  0
    1.6695   -0.7661   -1.3353 H   0  0  0  0  0  0  0  0  0  0  0  0
    2.3857   -1.1066    0.2766 H   0  0  0  0  0  0  0  0  0  0  0  0
    0.0488   -1.4779    1.1844 H   0  0  0  0  0  0  0  0  0  0  0  0
   -0.2705   -2.0997   -0.4440 H   0  0  0  0  0  0  0  0  0  0  0  0
    1.5943    1.0229    1.2016 H   0  0  0  0  0  0  0  0  0  0  0  0
    1.8462    1.4958   -0.4688 H   0  0  0  0  0  0  0  0  0  0  0  0
  1  6  1  0  0  0  0
  1  2  1  0  0  0  0
  1  8  1  0  0  0  0
  2  9  1  0  0  0  0
  3  5  1  0  0  0  0
  3  2  1  0  0  0  0
  4  3  2  0  0  0  0
  5  6  1  0  0  0  0
  6 11  1  0  0  0  0
  7  1  1  0  0  0  0
 10  2  1  0  0  0  0
 12  6  1  0  0  0  0
M  END
$$$$
