Compound 039, distorted structure 09
 OpenBabel12112416273D

 12 12  0  0  0  0  0  0  0  0999 V2000
    1.4571   -0.7571   -0.1867 C   0  0  0  0  0  0  0  0  0  0  0  0
    0.0701   -1.2485    0.0882 C   0  0  0  0  0  0  0  0  0  0  0  0
   -0.8988   -0.0312    0.0346 C   0  0  0  0  0  0  0  0  0  0  0  0
   -1.9878   -0.0496   -0.1173 O   0  0  0  0  0  0  0  0  0  0  0  0
   -0.1332    1.0882   -0.0644 O   0  0  0  0  0  0  0  0  0  0  0  0
    1.4183    0.8126    0.1051 C   0  0  0  0  0  0  0  0  0  0  0  0
    1.6832   -0.8149   -1.2556 H   0  0  0  0  0  0  0  0  0  0  0  0
    2.3263   -1.1006    0.3488 H   0  0  0  0  0  0  0  0  0  0  0  0
    0.1260   -1.5747    1.2630 H   0  0  0  0  0  0  0  0  0  0  0  0
   -0.1928   -2.0334   -0.4532 H   0  0  0  0  0  0  0  0  0  0  0  0
    1.6141    1.0207    1.2578 H   0  0  0  0  0  0  0  0  0  0  0  0
    1.9766    1.5266   -0.4785 H   0  0  0  0  0  0  0  0  0  0  0  0
  1  2  1  0  0  0  0
  1  6  1  0  0  0  0
  1  8  1  0  0  0  0
  2  9  1  0  0  0  0
  3  2  1  0  0  0  0
  4  3  2  0  0  0  0
  5  3  1  0  0  0  0
  5  6  1  0  0  0  0
  6 11  1  0  0  0  0
  7  1  1  0  0  0  0
 10  2  1  0  0  0  0
 12  6  1  0  0  0  0
M  END
$$$$
