Compound 040, distorted structure 08
 OpenBabel12112416273D

 13 12  0  0  0  0  0  0  0  0999 V2000
   -0.6268    0.7125    0.1063 C   0  0  0  0  0  0  0  0  0  0  0  0
    0.6365   -0.2042    0.0613 C   0  0  0  0  0  0  0  0  0  0  0  0
    0.5853   -1.4018    0.0545 C   0  0  0  0  0  0  0  0  0  0  0  0
    1.3772   -1.9971    0.0584 H   0  0  0  0  0  0  0  0  0  0  0  0
   -0.3358   -2.0535    0.0403 H   0  0  0  0  0  0  0  0  0  0  0  0
    1.9268    0.5812   -0.0034 C   0  0  0  0  0  0  0  0  0  0  0  0
    1.7773    1.2207   -0.9199 H   0  0  0  0  0  0  0  0  0  0  0  0
    1.9516    1.3052    0.6957 H   0  0  0  0  0  0  0  0  0  0  0  0
    2.7137   -0.0430   -0.0477 H   0  0  0  0  0  0  0  0  0  0  0  0
   -0.5496    1.4485   -0.6619 H   0  0  0  0  0  0  0  0  0  0  0  0
   -0.6848    1.1967    1.0790 H   0  0  0  0  0  0  0  0  0  0  0  0
   -1.9680   -0.0593   -0.0191 O   0  0  0  0  0  0  0  0  0  0  0  0
   -1.8863   -0.3736   -0.9169 H   0  0  0  0  0  0  0  0  0  0  0  0
  1 11  1  0  0  0  0
  2  1  1  0  0  0  0
  3  4  1  0  0  0  0
  3  2  2  0  0  0  0
  5  3  1  0  0  0  0
  6  2  1  0  0  0  0
  6  8  1  0  0  0  0
  7  6  1  0  0  0  0
  9  6  1  0  0  0  0
 10  1  1  0  0  0  0
 12  1  1  0  0  0  0
 13 12  1  0  0  0  0
M  END
$$$$
