Compound 040, distorted structure 09
 OpenBabel12112412253D

 13 12  0  0  0  0  0  0  0  0999 V2000
   -0.6295    0.7740    0.1008 C   0  0  0  0  0  0  0  0  0  0  0  0
    0.5896   -0.0144   -0.0899 C   0  0  0  0  0  0  0  0  0  0  0  0
    0.4518   -1.4015   -0.0088 C   0  0  0  0  0  0  0  0  0  0  0  0
    1.5345   -2.0190    0.0731 H   0  0  0  0  0  0  0  0  0  0  0  0
   -0.4238   -1.9394    0.1470 H   0  0  0  0  0  0  0  0  0  0  0  0
    1.8937    0.6687    0.0511 C   0  0  0  0  0  0  0  0  0  0  0  0
    1.8813    1.2088   -1.0230 H   0  0  0  0  0  0  0  0  0  0  0  0
    1.8557    1.3550    0.6981 H   0  0  0  0  0  0  0  0  0  0  0  0
    2.6529   -0.0947   -0.1411 H   0  0  0  0  0  0  0  0  0  0  0  0
   -0.5410    1.5577   -0.6733 H   0  0  0  0  0  0  0  0  0  0  0  0
   -0.8033    1.3560    1.0750 H   0  0  0  0  0  0  0  0  0  0  0  0
   -1.8558   -0.0227    0.0017 O   0  0  0  0  0  0  0  0  0  0  0  0
   -1.9399   -0.3458   -0.8089 H   0  0  0  0  0  0  0  0  0  0  0  0
  1 11  1  0  0  0  0
  2  3  2  0  0  0  0
  2  6  1  0  0  0  0
  2  1  1  0  0  0  0
  3  4  1  0  0  0  0
  3  5  1  0  0  0  0
  6  8  1  0  0  0  0
  7  6  1  0  0  0  0
  9  6  1  0  0  0  0
 10  1  1  0  0  0  0
 12  1  1  0  0  0  0
 13 12  1  0  0  0  0
M  END
$$$$
