Compound 042, distorted structure 01
 OpenBabel12112412253D

 13 12  0  0  0  0  0  0  0  0999 V2000
   -2.0497    0.0190   -0.0656 C   0  0  0  0  0  0  0  0  0  0  0  0
   -0.7215    0.7736    0.0736 C   0  0  0  0  0  0  0  0  0  0  0  0
    0.5159   -0.1070   -0.0115 C   0  0  0  0  0  0  0  0  0  0  0  0
    0.4431   -1.3019   -0.0594 O   0  0  0  0  0  0  0  0  0  0  0  0
    1.8201    0.6416   -0.0535 C   0  0  0  0  0  0  0  0  0  0  0  0
    2.6291   -0.0540    0.1780 H   0  0  0  0  0  0  0  0  0  0  0  0
    1.8580    1.5052    0.6425 H   0  0  0  0  0  0  0  0  0  0  0  0
    1.9874    1.0156   -1.0417 H   0  0  0  0  0  0  0  0  0  0  0  0
   -0.6361    1.5782   -0.6822 H   0  0  0  0  0  0  0  0  0  0  0  0
   -0.6912    1.3101    1.0397 H   0  0  0  0  0  0  0  0  0  0  0  0
   -2.9003    0.7005    0.0012 H   0  0  0  0  0  0  0  0  0  0  0  0
   -2.1321   -0.7614    0.6939 H   0  0  0  0  0  0  0  0  0  0  0  0
   -2.0863   -0.4974   -1.0406 H   0  0  0  0  0  0  0  0  0  0  0  0
  1 11  1  0  0  0  0
  1  2  1  0  0  0  0
  1 12  1  0  0  0  0
  2 10  1  0  0  0  0
  3  2  1  0  0  0  0
  4  3  2  0  0  0  0
  5  3  1  0  0  0  0
  5  6  1  0  0  0  0
  5  7  1  0  0  0  0
  8  5  1  0  0  0  0
  9  2  1  0  0  0  0
 13  1  1  0  0  0  0
M  END
$$$$
