Compound 042, distorted structure 04
 OpenBabel12112412253D

 13 12  0  0  0  0  0  0  0  0999 V2000
   -2.0845   -0.0198   -0.0696 C   0  0  0  0  0  0  0  0  0  0  0  0
   -0.7170    0.7567    0.1196 C   0  0  0  0  0  0  0  0  0  0  0  0
    0.4478   -0.0587   -0.0273 C   0  0  0  0  0  0  0  0  0  0  0  0
    0.4246   -1.3231   -0.0976 O   0  0  0  0  0  0  0  0  0  0  0  0
    1.7917    0.6121   -0.0841 C   0  0  0  0  0  0  0  0  0  0  0  0
    2.5824   -0.1163    0.2377 H   0  0  0  0  0  0  0  0  0  0  0  0
    1.7983    1.4645    0.5955 H   0  0  0  0  0  0  0  0  0  0  0  0
    1.9255    1.0849   -1.1186 H   0  0  0  0  0  0  0  0  0  0  0  0
   -0.6497    1.5502   -0.6805 H   0  0  0  0  0  0  0  0  0  0  0  0
   -0.6501    1.3053    0.9751 H   0  0  0  0  0  0  0  0  0  0  0  0
   -2.9619    0.6944    0.0210 H   0  0  0  0  0  0  0  0  0  0  0  0
   -2.0658   -0.7371    0.7149 H   0  0  0  0  0  0  0  0  0  0  0  0
   -2.1312   -0.4514   -1.0082 H   0  0  0  0  0  0  0  0  0  0  0  0
  1 11  1  0  0  0  0
  1  2  1  0  0  0  0
  1 12  1  0  0  0  0
  2 10  1  0  0  0  0
  3  2  1  0  0  0  0
  4  3  2  0  0  0  0
  5  3  1  0  0  0  0
  5  6  1  0  0  0  0
  5  7  1  0  0  0  0
  8  5  1  0  0  0  0
  9  2  1  0  0  0  0
 13  1  1  0  0  0  0
M  END
$$$$
