Compound 043, distorted structure 07
 OpenBabel12112412253D

 13 12  0  0  1  0  0  0  0  0999 V2000
   -1.3569   -1.0742   -0.4972 C   0  0  0  0  0  0  0  0  0  0  0  0
   -0.6848   -0.0314    0.3594 C   0  0  1  0  0  0  0  0  0  0  0  0
   -0.9791   -2.1017   -0.3603 H   0  0  0  0  0  0  0  0  0  0  0  0
   -1.3621   -0.7233   -1.5142 H   0  0  0  0  0  0  0  0  0  0  0  0
   -2.5275   -1.1381   -0.2561 H   0  0  0  0  0  0  0  0  0  0  0  0
    0.7429   -0.1198    0.1455 C   0  0  0  0  0  0  0  0  0  0  0  0
   -0.8932   -0.4899    1.5194 H   0  0  0  0  0  0  0  0  0  0  0  0
   -1.2140    1.1985    0.1272 N   0  0  0  0  0  0  0  0  0  0  0  0
    1.1623    0.9444   -0.5978 O   0  0  0  0  0  0  0  0  0  0  0  0
    0.3775    1.4610   -0.6604 H   0  0  0  0  0  0  0  0  0  0  0  0
    1.4793   -0.9898    0.5019 O   0  0  0  0  0  0  0  0  0  0  0  0
   -2.2722    1.1768   -0.1846 H   0  0  0  0  0  0  0  0  0  0  0  0
   -1.2239    1.8496    1.0991 H   0  0  0  0  0  0  0  0  0  0  0  0
  1  3  1  0  0  0  0
  1  5  1  0  0  0  0
  1  2  1  0  0  0  0
  2  7  1  1  0  0  0
  4  1  1  0  0  0  0
  6  2  1  0  0  0  0
  6 11  2  0  0  0  0
  8  2  1  0  0  0  0
  8 13  1  0  0  0  0
  9  6  1  0  0  0  0
 10  9  1  0  0  0  0
 12  8  1  0  0  0  0
M  END
$$$$
