Compound 043, distorted structure 08
 OpenBabel12112412253D

 13 12  0  0  1  0  0  0  0  0999 V2000
   -1.3942   -1.0596   -0.5417 C   0  0  0  0  0  0  0  0  0  0  0  0
   -0.8392   -0.0116    0.4905 C   0  0  1  0  0  0  0  0  0  0  0  0
   -1.0448   -2.0698   -0.4018 H   0  0  0  0  0  0  0  0  0  0  0  0
   -1.2442   -0.7288   -1.4811 H   0  0  0  0  0  0  0  0  0  0  0  0
   -2.4335   -1.1598   -0.3592 H   0  0  0  0  0  0  0  0  0  0  0  0
    0.8250   -0.1193    0.2258 C   0  0  0  0  0  0  0  0  0  0  0  0
   -0.8221   -0.4717    1.5490 H   0  0  0  0  0  0  0  0  0  0  0  0
   -1.1990    1.3513    0.2108 N   0  0  0  0  0  0  0  0  0  0  0  0
    1.1483    0.9363   -0.5519 O   0  0  0  0  0  0  0  0  0  0  0  0
    0.5319    1.5748   -0.6670 H   0  0  0  0  0  0  0  0  0  0  0  0
    1.4543   -0.9982    0.4662 O   0  0  0  0  0  0  0  0  0  0  0  0
   -2.2948    1.2068   -0.2251 H   0  0  0  0  0  0  0  0  0  0  0  0
   -1.3626    1.9032    1.0999 H   0  0  0  0  0  0  0  0  0  0  0  0
  1  3  1  0  0  0  0
  1  5  1  0  0  0  0
  1  2  1  0  0  0  0
  2  7  1  1  0  0  0
  4  1  1  0  0  0  0
  6 11  2  0  0  0  0
  6  2  1  0  0  0  0
  8  2  1  0  0  0  0
  8 13  1  0  0  0  0
  9  6  1  0  0  0  0
 10  9  1  0  0  0  0
 12  8  1  0  0  0  0
M  END
$$$$
