Compound 044, distorted structure 05
 OpenBabel12112412253D

 14 14  0  0  0  0  0  0  0  0999 V2000
   -1.4533   -0.7928   -0.2143 C   0  0  0  0  0  0  0  0  0  0  0  0
   -1.4450    0.6958    0.2467 C   0  0  0  0  0  0  0  0  0  0  0  0
   -0.0902    1.2491   -0.1600 C   0  0  0  0  0  0  0  0  0  0  0  0
    0.9112    0.0550    0.0098 C   0  0  0  0  0  0  0  0  0  0  0  0
    2.0692    0.0630   -0.0032 O   0  0  0  0  0  0  0  0  0  0  0  0
   -0.0032   -1.1646    0.1057 C   0  0  0  0  0  0  0  0  0  0  0  0
   -1.5362   -0.8215   -1.3746 H   0  0  0  0  0  0  0  0  0  0  0  0
   -2.2908   -1.3421    0.2318 H   0  0  0  0  0  0  0  0  0  0  0  0
   -1.6155    0.7195    1.3608 H   0  0  0  0  0  0  0  0  0  0  0  0
   -2.2566    1.3742   -0.2181 H   0  0  0  0  0  0  0  0  0  0  0  0
    0.3112    2.0504    0.4173 H   0  0  0  0  0  0  0  0  0  0  0  0
    0.0579    1.5707   -1.1190 H   0  0  0  0  0  0  0  0  0  0  0  0
   -0.0484   -1.5414    1.1229 H   0  0  0  0  0  0  0  0  0  0  0  0
    0.3418   -2.0088   -0.4873 H   0  0  0  0  0  0  0  0  0  0  0  0
  1  6  1  0  0  0  0
  1  8  1  0  0  0  0
  1  2  1  0  0  0  0
  2  9  1  0  0  0  0
  3  4  1  0  0  0  0
  3  2  1  0  0  0  0
  3 11  1  0  0  0  0
  4  6  1  0  0  0  0
  5  4  2  0  0  0  0
  6 13  1  0  0  0  0
  7  1  1  0  0  0  0
 10  2  1  0  0  0  0
 12  3  1  0  0  0  0
 14  6  1  0  0  0  0
M  END
$$$$
