Compound 045, distorted structure 09
 OpenBabel12112412253D

 14 15  0  0  1  0  0  0  0  0999 V2000
    0.6690   -0.7843    0.3838 C   0  0  1  0  0  0  0  0  0  0  0  0
    0.6529    0.6902    0.3875 C   0  0  2  0  0  0  0  0  0  0  0  0
   -0.5786    1.1938    0.2587 C   0  0  0  0  0  0  0  0  0  0  0  0
   -1.3414   -0.0042   -0.4510 C   0  0  0  0  0  0  0  0  0  0  0  0
   -0.7487    2.1164   -0.5819 H   0  0  0  0  0  0  0  0  0  0  0  0
   -1.0903    1.5046    1.1689 H   0  0  0  0  0  0  0  0  0  0  0  0
   -0.6361   -1.3021    0.1660 C   0  0  0  0  0  0  0  0  0  0  0  0
   -1.2313   -0.0907   -1.4105 H   0  0  0  0  0  0  0  0  0  0  0  0
   -2.5236    0.0504   -0.1696 H   0  0  0  0  0  0  0  0  0  0  0  0
   -0.7724   -2.1212   -0.5633 H   0  0  0  0  0  0  0  0  0  0  0  0
   -1.1830   -1.4610    1.1552 H   0  0  0  0  0  0  0  0  0  0  0  0
    1.2487    0.0064   -0.7307 O   0  0  0  0  0  0  0  0  0  0  0  0
    1.4628   -1.2556    1.0133 H   0  0  0  0  0  0  0  0  0  0  0  0
    1.4638    1.4263    0.8939 H   0  0  0  0  0  0  0  0  0  0  0  0
  1  2  1  0  0  0  0
  1 13  1  1  0  0  0
  2 14  1  1  0  0  0
  3  2  1  0  0  0  0
  3  6  1  0  0  0  0
  4  9  1  0  0  0  0
  4  7  1  0  0  0  0
  4  3  1  0  0  0  0
  5  3  1  0  0  0  0
  7  1  1  0  0  0  0
  7 11  1  0  0  0  0
  8  4  1  0  0  0  0
 10  7  1  0  0  0  0
 12  1  1  0  0  0  0
 12  2  1  0  0  0  0
M  END
$$$$
