Compound 046, distorted structure 08
 OpenBabel12112412253D

 14 13  0  0  0  0  0  0  0  0999 V2000
   -1.3228    0.0077   -0.6672 C   0  0  0  0  0  0  0  0  0  0  0  0
   -0.0085    0.8601   -0.5148 C   0  0  0  0  0  0  0  0  0  0  0  0
   -1.2693   -0.5161   -1.6271 H   0  0  0  0  0  0  0  0  0  0  0  0
   -2.0981    0.8177   -0.6118 H   0  0  0  0  0  0  0  0  0  0  0  0
   -1.4790   -1.0001    0.3178 O   0  0  0  0  0  0  0  0  0  0  0  0
    1.1670   -0.2226   -0.7600 C   0  0  0  0  0  0  0  0  0  0  0  0
    0.0079    1.4958    0.8460 O   0  0  0  0  0  0  0  0  0  0  0  0
    0.0914    1.5743   -1.3189 H   0  0  0  0  0  0  0  0  0  0  0  0
    1.5040   -1.0695    0.4590 O   0  0  0  0  0  0  0  0  0  0  0  0
    2.1270    0.3950   -0.8287 H   0  0  0  0  0  0  0  0  0  0  0  0
    1.0716   -0.7414   -1.5813 H   0  0  0  0  0  0  0  0  0  0  0  0
   -1.4736   -0.5806    1.2806 H   0  0  0  0  0  0  0  0  0  0  0  0
    0.7115    0.7787    1.3947 H   0  0  0  0  0  0  0  0  0  0  0  0
    0.6833   -1.4346    0.5904 H   0  0  0  0  0  0  0  0  0  0  0  0
  1  4  1  0  0  0  0
  1  2  1  0  0  0  0
  1  5  1  0  0  0  0
  2  7  1  0  0  0  0
  3  1  1  0  0  0  0
  5 12  1  0  0  0  0
  6  2  1  0  0  0  0
  6  9  1  0  0  0  0
  7 13  1  0  0  0  0
  8  2  1  0  0  0  0
  9 14  1  0  0  0  0
 10  6  1  0  0  0  0
 11  6  1  0  0  0  0
M  END
$$$$
