Compound 046, distorted structure 04
 OpenBabel12112412253D

 14 13  0  0  0  0  0  0  0  0999 V2000
   -1.3207   -0.0016   -0.6145 C   0  0  0  0  0  0  0  0  0  0  0  0
   -0.0097    0.8247   -0.4921 C   0  0  0  0  0  0  0  0  0  0  0  0
   -1.3333   -0.4768   -1.6206 H   0  0  0  0  0  0  0  0  0  0  0  0
   -2.1544    0.7414   -0.6323 H   0  0  0  0  0  0  0  0  0  0  0  0
   -1.4336   -1.0330    0.3764 O   0  0  0  0  0  0  0  0  0  0  0  0
    1.2242   -0.1386   -0.6990 C   0  0  0  0  0  0  0  0  0  0  0  0
    0.0786    1.4282    0.7854 O   0  0  0  0  0  0  0  0  0  0  0  0
    0.0998    1.5128   -1.2748 H   0  0  0  0  0  0  0  0  0  0  0  0
    1.4824   -0.9978    0.4055 O   0  0  0  0  0  0  0  0  0  0  0  0
    2.2090    0.4795   -0.7237 H   0  0  0  0  0  0  0  0  0  0  0  0
    1.1212   -0.6915   -1.6572 H   0  0  0  0  0  0  0  0  0  0  0  0
   -1.5388   -0.5714    1.1349 H   0  0  0  0  0  0  0  0  0  0  0  0
    0.6067    0.8084    1.3307 H   0  0  0  0  0  0  0  0  0  0  0  0
    0.6142   -1.4973    0.4853 H   0  0  0  0  0  0  0  0  0  0  0  0
  1  2  1  0  0  0  0
  1  5  1  0  0  0  0
  2  7  1  0  0  0  0
  3  1  1  0  0  0  0
  4  1  1  0  0  0  0
  5 12  1  0  0  0  0
  6  2  1  0  0  0  0
  6  9  1  0  0  0  0
  7 13  1  0  0  0  0
  8  2  1  0  0  0  0
  9 14  1  0  0  0  0
 10  6  1  0  0  0  0
 11  6  1  0  0  0  0
M  END
$$$$
