Compound 046, distorted structure 01
 OpenBabel12112412253D

 14 13  0  0  0  0  0  0  0  0999 V2000
   -1.2977    0.0289   -0.6464 C   0  0  0  0  0  0  0  0  0  0  0  0
    0.0372    0.7633   -0.5142 C   0  0  0  0  0  0  0  0  0  0  0  0
   -1.3676   -0.4647   -1.6303 H   0  0  0  0  0  0  0  0  0  0  0  0
   -2.1133    0.7721   -0.6079 H   0  0  0  0  0  0  0  0  0  0  0  0
   -1.4691   -0.9816    0.3355 O   0  0  0  0  0  0  0  0  0  0  0  0
    1.2635   -0.1434   -0.6893 C   0  0  0  0  0  0  0  0  0  0  0  0
    0.0678    1.4342    0.7806 O   0  0  0  0  0  0  0  0  0  0  0  0
    0.0622    1.5408   -1.3009 H   0  0  0  0  0  0  0  0  0  0  0  0
    1.4155   -0.9949    0.4477 O   0  0  0  0  0  0  0  0  0  0  0  0
    2.1572    0.4503   -0.7470 H   0  0  0  0  0  0  0  0  0  0  0  0
    1.1621   -0.7265   -1.6004 H   0  0  0  0  0  0  0  0  0  0  0  0
   -1.5245   -0.5428    1.2001 H   0  0  0  0  0  0  0  0  0  0  0  0
    0.6544    0.8650    1.3301 H   0  0  0  0  0  0  0  0  0  0  0  0
    0.6119   -1.4886    0.5428 H   0  0  0  0  0  0  0  0  0  0  0  0
  1  4  1  0  0  0  0
  1  2  1  0  0  0  0
  1  5  1  0  0  0  0
  2  7  1  0  0  0  0
  3  1  1  0  0  0  0
  5 12  1  0  0  0  0
  6  2  1  0  0  0  0
  6  9  1  0  0  0  0
  7 13  1  0  0  0  0
  8  2  1  0  0  0  0
  9 14  1  0  0  0  0
 10  6  1  0  0  0  0
 11  6  1  0  0  0  0
M  END
$$$$
