Compound 047, distorted structure 07
 OpenBabel12112416273D

 14 14  0  0  1  0  0  0  0  0999 V2000
   -0.5060   -1.2168    0.0738 C   0  0  0  0  0  0  0  0  0  0  0  0
   -1.4769    0.0662   -0.0557 C   0  0  0  0  0  0  0  0  0  0  0  0
   -0.4279    0.8630    0.3115 N   0  0  0  0  0  0  0  0  0  0  0  0
    0.5726   -0.1123    0.5314 C   0  0  2  0  0  0  0  0  0  0  0  0
   -0.3264   -1.6646   -0.7780 H   0  0  0  0  0  0  0  0  0  0  0  0
   -0.7643   -1.9191    0.9750 H   0  0  0  0  0  0  0  0  0  0  0  0
    0.9294   -0.1596    1.5234 H   0  0  0  0  0  0  0  0  0  0  0  0
    1.7752    0.0481   -0.5119 C   0  0  0  0  0  0  0  0  0  0  0  0
    3.0043    0.0448   -0.0667 C   0  0  0  0  0  0  0  0  0  0  0  0
   -2.6326    0.1625   -0.3494 O   0  0  0  0  0  0  0  0  0  0  0  0
   -0.5272    1.9429    0.3076 H   0  0  0  0  0  0  0  0  0  0  0  0
    1.4900    0.1201   -1.5448 H   0  0  0  0  0  0  0  0  0  0  0  0
    3.3156   -0.0115    0.9165 H   0  0  0  0  0  0  0  0  0  0  0  0
    3.8570    0.1386   -0.7971 H   0  0  0  0  0  0  0  0  0  0  0  0
  1  4  1  0  0  0  0
  1  6  1  0  0  0  0
  2  1  1  0  0  0  0
  2  3  1  0  0  0  0
  3  4  1  0  0  0  0
  4  7  1  1  0  0  0
  5  1  1  0  0  0  0
  8  9  2  0  0  0  0
  8  4  1  0  0  0  0
  9 13  1  0  0  0  0
 10  2  2  0  0  0  0
 11  3  1  0  0  0  0
 12  8  1  0  0  0  0
 14  9  1  0  0  0  0
M  END
$$$$
