Compound 048, distorted structure 01
 OpenBabel12112416273D

 14 14  0  0  1  0  0  0  0  0999 V2000
   -0.6479    0.7723   -0.4063 C   0  0  2  0  0  0  0  0  0  0  0  0
   -0.8082   -0.6713   -0.0507 C   0  0  0  0  0  0  0  0  0  0  0  0
    0.3998   -1.2322    0.1968 C   0  0  0  0  0  0  0  0  0  0  0  0
    1.4012   -0.1920    0.0305 C   0  0  0  0  0  0  0  0  0  0  0  0
    0.7444    0.9847   -0.3369 O   0  0  0  0  0  0  0  0  0  0  0  0
   -1.4177    1.6992    0.5178 C   0  0  0  0  0  0  0  0  0  0  0  0
   -0.9869    0.9137   -1.4814 H   0  0  0  0  0  0  0  0  0  0  0  0
   -2.0421   -1.1872   -0.0495 O   0  0  0  0  0  0  0  0  0  0  0  0
    0.6521   -2.2468    0.4784 H   0  0  0  0  0  0  0  0  0  0  0  0
   -1.2075    2.7408    0.2510 H   0  0  0  0  0  0  0  0  0  0  0  0
   -1.0778    1.5209    1.5471 H   0  0  0  0  0  0  0  0  0  0  0  0
   -2.4985    1.5382    0.4630 H   0  0  0  0  0  0  0  0  0  0  0  0
    2.5857   -0.2217    0.1363 O   0  0  0  0  0  0  0  0  0  0  0  0
   -2.0290   -2.1122    0.1956 H   0  0  0  0  0  0  0  0  0  0  0  0
  1  7  1  6  0  0  0
  1  5  1  0  0  0  0
  1  2  1  0  0  0  0
  1  6  1  0  0  0  0
  2  8  1  0  0  0  0
  2  3  2  0  0  0  0
  3  9  1  0  0  0  0
  4 13  2  0  0  0  0
  4  3  1  0  0  0  0
  5  4  1  0  0  0  0
  6 11  1  0  0  0  0
  8 14  1  0  0  0  0
 10  6  1  0  0  0  0
 12  6  1  0  0  0  0
M  END
$$$$
