Compound 048, distorted structure 03
 OpenBabel12112416273D

 14 14  0  0  1  0  0  0  0  0999 V2000
   -0.6701    0.7313   -0.4028 C   0  0  2  0  0  0  0  0  0  0  0  0
   -0.8273   -0.6891   -0.0975 C   0  0  0  0  0  0  0  0  0  0  0  0
    0.4174   -1.2514    0.1896 C   0  0  0  0  0  0  0  0  0  0  0  0
    1.3873   -0.1740    0.0328 C   0  0  0  0  0  0  0  0  0  0  0  0
    0.7310    0.9826   -0.3187 O   0  0  0  0  0  0  0  0  0  0  0  0
   -1.4105    1.7183    0.4896 C   0  0  0  0  0  0  0  0  0  0  0  0
   -1.0225    0.9650   -1.4851 H   0  0  0  0  0  0  0  0  0  0  0  0
   -2.0447   -1.2284   -0.0586 O   0  0  0  0  0  0  0  0  0  0  0  0
    0.6585   -2.2086    0.5078 H   0  0  0  0  0  0  0  0  0  0  0  0
   -1.2106    2.7289    0.2427 H   0  0  0  0  0  0  0  0  0  0  0  0
   -1.0769    1.5572    1.5301 H   0  0  0  0  0  0  0  0  0  0  0  0
   -2.5030    1.5403    0.4864 H   0  0  0  0  0  0  0  0  0  0  0  0
    2.6029   -0.1850    0.1691 O   0  0  0  0  0  0  0  0  0  0  0  0
   -1.9974   -2.1110    0.1705 H   0  0  0  0  0  0  0  0  0  0  0  0
  1  7  1  6  0  0  0
  1  5  1  0  0  0  0
  1  2  1  0  0  0  0
  1  6  1  0  0  0  0
  2  8  1  0  0  0  0
  2  3  2  0  0  0  0
  3  9  1  0  0  0  0
  4 13  2  0  0  0  0
  4  3  1  0  0  0  0
  5  4  1  0  0  0  0
  6 11  1  0  0  0  0
  8 14  1  0  0  0  0
 10  6  1  0  0  0  0
 12  6  1  0  0  0  0
M  END
$$$$
