Compound 051, distorted structure 05
 OpenBabel12112412253D

 16 15  0  0  0  0  0  0  0  0999 V2000
   -0.0826    0.5804   -0.4765 C   0  0  0  0  0  0  0  0  0  0  0  0
    1.0126    0.3720    0.4025 O   0  0  0  0  0  0  0  0  0  0  0  0
    2.0449   -0.5480   -0.0696 C   0  0  0  0  0  0  0  0  0  0  0  0
    2.4639   -0.1630   -1.0148 H   0  0  0  0  0  0  0  0  0  0  0  0
    1.7096   -1.5834   -0.1584 H   0  0  0  0  0  0  0  0  0  0  0  0
    2.8125   -0.5019    0.7280 H   0  0  0  0  0  0  0  0  0  0  0  0
   -0.7507   -0.6546   -0.7086 O   0  0  0  0  0  0  0  0  0  0  0  0
    0.3817    0.7644   -1.3891 H   0  0  0  0  0  0  0  0  0  0  0  0
   -0.9474    1.6467    0.1953 C   0  0  0  0  0  0  0  0  0  0  0  0
   -1.3167   -1.1846    0.4849 C   0  0  0  0  0  0  0  0  0  0  0  0
   -2.3120   -0.7303    0.7171 H   0  0  0  0  0  0  0  0  0  0  0  0
   -0.7408   -1.3370    1.3679 H   0  0  0  0  0  0  0  0  0  0  0  0
   -1.6964   -2.2925    0.2265 H   0  0  0  0  0  0  0  0  0  0  0  0
   -0.3290    2.6176    0.1783 H   0  0  0  0  0  0  0  0  0  0  0  0
   -1.1441    1.3878    1.2017 H   0  0  0  0  0  0  0  0  0  0  0  0
   -1.8707    1.7096   -0.4879 H   0  0  0  0  0  0  0  0  0  0  0  0
  1  9  1  0  0  0  0
  1  2  1  0  0  0  0
  3  2  1  0  0  0  0
  3  6  1  0  0  0  0
  4  3  1  0  0  0  0
  5  3  1  0  0  0  0
  7  1  1  0  0  0  0
  7 10  1  0  0  0  0
  8  1  1  0  0  0  0
  9 15  1  0  0  0  0
 10 11  1  0  0  0  0
 10 12  1  0  0  0  0
 13 10  1  0  0  0  0
 14  9  1  0  0  0  0
 16  9  1  0  0  0  0
M  END
$$$$
