Compound 052, distorted structure 03
 OpenBabel12112416273D

 16 16  0  0  0  0  0  0  0  0999 V2000
   -0.4452   -1.3084    0.0012 C   0  0  0  0  0  0  0  0  0  0  0  0
   -1.8225   -1.0430    0.0263 C   0  0  0  0  0  0  0  0  0  0  0  0
   -2.2479    0.2908   -0.0300 C   0  0  0  0  0  0  0  0  0  0  0  0
   -1.3673    1.3083    0.0142 C   0  0  0  0  0  0  0  0  0  0  0  0
    0.0285    1.0601    0.0074 C   0  0  0  0  0  0  0  0  0  0  0  0
    0.4854   -0.2733   -0.0113 C   0  0  0  0  0  0  0  0  0  0  0  0
    1.8054   -0.5896   -0.0085 O   0  0  0  0  0  0  0  0  0  0  0  0
    2.7764    0.4363    0.0285 C   0  0  0  0  0  0  0  0  0  0  0  0
    2.7081    1.0155    0.8761 H   0  0  0  0  0  0  0  0  0  0  0  0
    2.6683    1.0415   -0.9153 H   0  0  0  0  0  0  0  0  0  0  0  0
    3.7130   -0.1130   -0.0218 H   0  0  0  0  0  0  0  0  0  0  0  0
   -0.0863   -2.3474   -0.0108 H   0  0  0  0  0  0  0  0  0  0  0  0
   -2.5022   -1.8097   -0.0182 H   0  0  0  0  0  0  0  0  0  0  0  0
   -3.3265    0.5204   -0.0072 H   0  0  0  0  0  0  0  0  0  0  0  0
   -1.6486    2.3931    0.0050 H   0  0  0  0  0  0  0  0  0  0  0  0
    0.7515    1.9108   -0.0116 H   0  0  0  0  0  0  0  0  0  0  0  0
  1  2  1  0  0  0  0
  3 14  1  0  0  0  0
  3  4  1  0  0  0  0
  3  2  2  0  0  0  0
  5  4  2  0  0  0  0
  6  7  1  0  0  0  0
  6  1  2  0  0  0  0
  6  5  1  0  0  0  0
  7  8  1  0  0  0  0
  8  9  1  0  0  0  0
 10  8  1  0  0  0  0
 11  8  1  0  0  0  0
 12  1  1  0  0  0  0
 13  2  1  0  0  0  0
 15  4  1  0  0  0  0
 16  5  1  0  0  0  0
M  END
$$$$
