Compound 052, distorted structure 08
 OpenBabel12112416273D

 16 16  0  0  0  0  0  0  0  0999 V2000
   -0.4044   -1.3275   -0.0029 C   0  0  0  0  0  0  0  0  0  0  0  0
   -1.8375   -0.9723    0.0433 C   0  0  0  0  0  0  0  0  0  0  0  0
   -2.2230    0.2781   -0.0580 C   0  0  0  0  0  0  0  0  0  0  0  0
   -1.2892    1.3380   -0.0009 C   0  0  0  0  0  0  0  0  0  0  0  0
   -0.0093    1.0071    0.0409 C   0  0  0  0  0  0  0  0  0  0  0  0
    0.5103   -0.2653   -0.0481 C   0  0  0  0  0  0  0  0  0  0  0  0
    1.7605   -0.5590    0.0579 O   0  0  0  0  0  0  0  0  0  0  0  0
    2.8425    0.3430    0.0463 C   0  0  0  0  0  0  0  0  0  0  0  0
    2.7200    1.0254    0.9502 H   0  0  0  0  0  0  0  0  0  0  0  0
    2.6792    1.0526   -0.9203 H   0  0  0  0  0  0  0  0  0  0  0  0
    3.7125   -0.1488    0.0106 H   0  0  0  0  0  0  0  0  0  0  0  0
   -0.0756   -2.2471   -0.0244 H   0  0  0  0  0  0  0  0  0  0  0  0
   -2.4720   -1.8825    0.0709 H   0  0  0  0  0  0  0  0  0  0  0  0
   -3.3736    0.4982    0.0102 H   0  0  0  0  0  0  0  0  0  0  0  0
   -1.6889    2.3889   -0.0530 H   0  0  0  0  0  0  0  0  0  0  0  0
    0.7726    1.9444    0.0687 H   0  0  0  0  0  0  0  0  0  0  0  0
  1  2  1  0  0  0  0
  2 13  1  0  0  0  0
  3  4  1  0  0  0  0
  3 14  1  0  0  0  0
  3  2  2  0  0  0  0
  4  5  2  0  0  0  0
  5 16  1  0  0  0  0
  6  1  2  0  0  0  0
  6  5  1  0  0  0  0
  6  7  1  0  0  0  0
  8  7  1  0  0  0  0
  8  9  1  0  0  0  0
 10  8  1  0  0  0  0
 11  8  1  0  0  0  0
 12  1  1  0  0  0  0
 15  4  1  0  0  0  0
M  END
$$$$
