Compound 054, distorted structure 03
 OpenBabel12112412253D

 16 15  0  0  1  0  0  0  0  0999 V2000
    1.1264   -1.1715    0.5046 C   0  0  0  0  0  0  0  0  0  0  0  0
   -0.2481   -0.6188    0.1350 C   0  0  0  0  0  0  0  0  0  0  0  0
   -0.5574    0.8192    0.5962 C   0  0  1  0  0  0  0  0  0  0  0  0
    0.5204    1.8324    0.3358 C   0  0  0  0  0  0  0  0  0  0  0  0
   -0.7324    0.7089    1.7151 H   0  0  0  0  0  0  0  0  0  0  0  0
   -1.7363    1.2614   -0.0376 O   0  0  0  0  0  0  0  0  0  0  0  0
    1.1766   -2.5900    0.1921 O   0  0  0  0  0  0  0  0  0  0  0  0
    1.2855   -1.0210    1.5712 H   0  0  0  0  0  0  0  0  0  0  0  0
    1.8708   -0.5912   -0.0655 H   0  0  0  0  0  0  0  0  0  0  0  0
    0.3799   -2.7627   -0.4121 H   0  0  0  0  0  0  0  0  0  0  0  0
   -2.1603    0.4986   -0.4389 H   0  0  0  0  0  0  0  0  0  0  0  0
   -1.0065   -1.2087   -0.4956 O   0  0  0  0  0  0  0  0  0  0  0  0
    0.8251    1.8559   -1.0627 O   0  0  0  0  0  0  0  0  0  0  0  0
    1.4366    1.5356    0.8605 H   0  0  0  0  0  0  0  0  0  0  0  0
    0.2139    2.7758    0.6735 H   0  0  0  0  0  0  0  0  0  0  0  0
    0.0218    2.0258   -1.5450 H   0  0  0  0  0  0  0  0  0  0  0  0
  1  8  1  0  0  0  0
  2  1  1  0  0  0  0
  2  3  1  0  0  0  0
  3  5  1  1  0  0  0
  4  3  1  0  0  0  0
  4 15  1  0  0  0  0
  4 14  1  0  0  0  0
  6  3  1  0  0  0  0
  7  1  1  0  0  0  0
  9  1  1  0  0  0  0
 10  7  1  0  0  0  0
 11  6  1  0  0  0  0
 12  2  2  0  0  0  0
 13  4  1  0  0  0  0
 16 13  1  0  0  0  0
M  END
$$$$
