Compound 054, distorted structure 09
 OpenBabel12112412253D

 16 15  0  0  1  0  0  0  0  0999 V2000
    1.1609   -1.1610    0.4515 C   0  0  0  0  0  0  0  0  0  0  0  0
   -0.1912   -0.6719    0.1376 C   0  0  0  0  0  0  0  0  0  0  0  0
   -0.6490    0.8295    0.6933 C   0  0  1  0  0  0  0  0  0  0  0  0
    0.5783    1.7486    0.3502 C   0  0  0  0  0  0  0  0  0  0  0  0
   -0.6802    0.7431    1.6999 H   0  0  0  0  0  0  0  0  0  0  0  0
   -1.7711    1.1681   -0.0726 O   0  0  0  0  0  0  0  0  0  0  0  0
    1.1095   -2.6249    0.1066 O   0  0  0  0  0  0  0  0  0  0  0  0
    1.2791   -1.1149    1.5964 H   0  0  0  0  0  0  0  0  0  0  0  0
    1.9525   -0.5725   -0.0708 H   0  0  0  0  0  0  0  0  0  0  0  0
    0.3255   -2.7095   -0.4694 H   0  0  0  0  0  0  0  0  0  0  0  0
   -2.1871    0.4503   -0.3404 H   0  0  0  0  0  0  0  0  0  0  0  0
   -0.9989   -1.1622   -0.5168 O   0  0  0  0  0  0  0  0  0  0  0  0
    0.7612    1.8162   -1.0237 O   0  0  0  0  0  0  0  0  0  0  0  0
    1.4715    1.4920    0.9295 H   0  0  0  0  0  0  0  0  0  0  0  0
    0.1556    2.7052    0.6101 H   0  0  0  0  0  0  0  0  0  0  0  0
   -0.0727    1.9996   -1.4816 H   0  0  0  0  0  0  0  0  0  0  0  0
  1  8  1  0  0  0  0
  2  1  1  0  0  0  0
  2  3  1  0  0  0  0
  3  5  1  1  0  0  0
  4 15  1  0  0  0  0
  4  3  1  0  0  0  0
  4 14  1  0  0  0  0
  6  3  1  0  0  0  0
  7  1  1  0  0  0  0
  9  1  1  0  0  0  0
 10  7  1  0  0  0  0
 11  6  1  0  0  0  0
 12  2  2  0  0  0  0
 13  4  1  0  0  0  0
 16 13  1  0  0  0  0
M  END
$$$$
