Compound 055, distorted structure 09
 OpenBabel12112412253D

 17 17  0  0  1  0  0  0  0  0999 V2000
   -0.1336    0.2127    0.7516 C   0  0  2  0  0  0  0  0  0  0  0  0
   -1.4560   -0.0358    0.0768 C   0  0  0  0  0  0  0  0  0  0  0  0
    0.7698    1.3901    0.2223 C   0  0  0  0  0  0  0  0  0  0  0  0
    1.7286    0.5805   -0.9035 C   0  0  0  0  0  0  0  0  0  0  0  0
    1.2675    1.9433    0.9341 H   0  0  0  0  0  0  0  0  0  0  0  0
    0.0711    2.0391   -0.3351 H   0  0  0  0  0  0  0  0  0  0  0  0
    2.1538   -0.6026   -0.0244 C   0  0  0  0  0  0  0  0  0  0  0  0
    2.5809    1.3089   -1.1581 H   0  0  0  0  0  0  0  0  0  0  0  0
    1.0473    0.4211   -1.7099 H   0  0  0  0  0  0  0  0  0  0  0  0
    0.8297   -1.0562    0.6273 N   0  0  0  0  0  0  0  0  0  0  0  0
   -0.3867    0.3813    1.8778 H   0  0  0  0  0  0  0  0  0  0  0  0
    2.8980   -0.4259    0.5422 H   0  0  0  0  0  0  0  0  0  0  0  0
    2.5031   -1.4513   -0.7737 H   0  0  0  0  0  0  0  0  0  0  0  0
   -2.2298    0.8047    0.0039 O   0  0  0  0  0  0  0  0  0  0  0  0
   -1.3835   -1.3043   -0.4997 O   0  0  0  0  0  0  0  0  0  0  0  0
   -0.5366   -1.6830   -0.2759 H   0  0  0  0  0  0  0  0  0  0  0  0
    1.0220   -1.4379    1.5407 H   0  0  0  0  0  0  0  0  0  0  0  0
  1 11  1  1  0  0  0
  2  1  1  0  0  0  0
  3  1  1  0  0  0  0
  3  5  1  0  0  0  0
  4  7  1  0  0  0  0
  4  3  1  0  0  0  0
  6  3  1  0  0  0  0
  7 12  1  0  0  0  0
  7 10  1  0  0  0  0
  8  4  1  0  0  0  0
  9  4  1  0  0  0  0
 10  1  1  0  0  0  0
 10 17  1  0  0  0  0
 13  7  1  0  0  0  0
 14  2  2  0  0  0  0
 15 16  1  0  0  0  0
 15  2  1  0  0  0  0
M  END
$$$$
