Compound 057 optimized with r2SCAN-3c
 OpenBabel12112412253D

 19 19  0  0  0  0  0  0  0  0999 V2000
   -0.4741    1.4667   -0.4084 C   0  0  0  0  0  0  0  0  0  0  0  0
   -1.6195    0.5850    0.1076 C   0  0  0  0  0  0  0  0  0  0  0  0
   -1.4227   -0.9189   -0.0914 C   0  0  0  0  0  0  0  0  0  0  0  0
   -2.5553    0.8837   -0.3823 H   0  0  0  0  0  0  0  0  0  0  0  0
   -1.7549    0.7934    1.1793 H   0  0  0  0  0  0  0  0  0  0  0  0
   -0.0845   -1.4590    0.4021 C   0  0  0  0  0  0  0  0  0  0  0  0
   -1.4954   -1.1659   -1.1588 H   0  0  0  0  0  0  0  0  0  0  0  0
   -2.2332   -1.4613    0.4160 H   0  0  0  0  0  0  0  0  0  0  0  0
    0.9793   -1.0262   -0.4455 O   0  0  0  0  0  0  0  0  0  0  0  0
   -0.0886   -2.5554    0.3532 H   0  0  0  0  0  0  0  0  0  0  0  0
    0.1034   -1.1773    1.4511 H   0  0  0  0  0  0  0  0  0  0  0  0
    1.6902    0.1271   -0.0097 C   0  0  0  0  0  0  0  0  0  0  0  0
    0.8120    1.3096    0.4136 C   0  0  0  0  0  0  0  0  0  0  0  0
    2.3016    0.4088   -0.8750 H   0  0  0  0  0  0  0  0  0  0  0  0
    2.3784   -0.1364    0.8126 H   0  0  0  0  0  0  0  0  0  0  0  0
    1.4299    2.2136    0.3331 H   0  0  0  0  0  0  0  0  0  0  0  0
    0.5431    1.2243    1.4749 H   0  0  0  0  0  0  0  0  0  0  0  0
   -0.7993    2.5132   -0.3590 H   0  0  0  0  0  0  0  0  0  0  0  0
   -0.2743    1.2459   -1.4656 H   0  0  0  0  0  0  0  0  0  0  0  0
  1 18  1  0  0  0  0
  1  2  1  0  0  0  0
  1 13  1  0  0  0  0
  2  5  1  0  0  0  0
  3  2  1  0  0  0  0
  3  6  1  0  0  0  0
  3  8  1  0  0  0  0
  4  2  1  0  0  0  0
  6 11  1  0  0  0  0
  7  3  1  0  0  0  0
  9 12  1  0  0  0  0
  9  6  1  0  0  0  0
 10  6  1  0  0  0  0
 12 13  1  0  0  0  0
 12 15  1  0  0  0  0
 13 17  1  0  0  0  0
 14 12  1  0  0  0  0
 16 13  1  0  0  0  0
 19  1  1  0  0  0  0
M  END
$$$$
