Compound 058, distorted structure 04
 OpenBabel12112416273D

 10 10  0  0  1  0  0  0  0  0999 V2000
    1.6203   -0.6039    0.2900 C   0  0  0  0  0  0  0  0  0  0  0  0
    0.3638   -0.4478   -0.3779 C   0  0  1  0  0  0  0  0  0  0  0  0
   -0.9080   -0.2138    0.5510 C   0  0  0  0  0  0  0  0  0  0  0  0
   -0.5678    0.3668    1.4706 H   0  0  0  0  0  0  0  0  0  0  0  0
   -1.4214   -1.1421    0.6510 H   0  0  0  0  0  0  0  0  0  0  0  0
   -1.8776    0.6646   -0.1947 F   0  0  0  0  0  0  0  0  0  0  0  0
    1.2530    0.6473   -0.3504 O   0  0  0  0  0  0  0  0  0  0  0  0
    2.4143   -1.1430   -0.3006 H   0  0  0  0  0  0  0  0  0  0  0  0
    1.7317   -0.6670    1.3929 H   0  0  0  0  0  0  0  0  0  0  0  0
    0.1744   -0.7279   -1.3283 H   0  0  0  0  0  0  0  0  0  0  0  0
  1  9  1  0  0  0  0
  2 10  1  6  0  0  0
  2  7  1  0  0  0  0
  2  1  1  0  0  0  0
  2  3  1  0  0  0  0
  3  5  1  0  0  0  0
  3  4  1  0  0  0  0
  6  3  1  0  0  0  0
  7  1  1  0  0  0  0
  8  1  1  0  0  0  0
M  END
$$$$
