Compound 058, distorted structure 09
 OpenBabel12112416273D

 10 10  0  0  1  0  0  0  0  0999 V2000
    1.5291   -0.6783    0.2634 C   0  0  0  0  0  0  0  0  0  0  0  0
    0.4039   -0.3061   -0.2573 C   0  0  1  0  0  0  0  0  0  0  0  0
   -0.8380   -0.2261    0.5007 C   0  0  0  0  0  0  0  0  0  0  0  0
   -0.5301    0.3584    1.3191 H   0  0  0  0  0  0  0  0  0  0  0  0
   -1.4068   -1.0712    0.7218 H   0  0  0  0  0  0  0  0  0  0  0  0
   -1.7206    0.7182   -0.1115 F   0  0  0  0  0  0  0  0  0  0  0  0
    1.3870    0.7622   -0.2207 O   0  0  0  0  0  0  0  0  0  0  0  0
    2.3922   -1.2106   -0.2270 H   0  0  0  0  0  0  0  0  0  0  0  0
    1.6367   -0.6658    1.4742 H   0  0  0  0  0  0  0  0  0  0  0  0
    0.0186   -0.8671   -1.4034 H   0  0  0  0  0  0  0  0  0  0  0  0
  1  9  1  0  0  0  0
  2 10  1  6  0  0  0
  2  7  1  0  0  0  0
  2  1  1  0  0  0  0
  2  3  1  0  0  0  0
  3  5  1  0  0  0  0
  3  4  1  0  0  0  0
  6  3  1  0  0  0  0
  7  1  1  0  0  0  0
  8  1  1  0  0  0  0
M  END
$$$$
