Compound 059, distorted structure 07
 OpenBabel12112416273D

 11 10  0  0  0  0  0  0  0  0999 V2000
    2.7578    0.1430    0.3236 C   0  0  0  0  0  0  0  0  0  0  0  0
    1.5787   -0.1742   -0.2696 C   0  0  0  0  0  0  0  0  0  0  0  0
    0.3310    0.5772   -0.2257 C   0  0  0  0  0  0  0  0  0  0  0  0
   -0.9680   -0.0690   -0.0591 C   0  0  0  0  0  0  0  0  0  0  0  0
    0.0803    1.2250   -1.3211 H   0  0  0  0  0  0  0  0  0  0  0  0
    0.3686    1.4633    0.3700 H   0  0  0  0  0  0  0  0  0  0  0  0
    3.5097   -0.4811    0.2198 H   0  0  0  0  0  0  0  0  0  0  0  0
    2.7147    0.9209    0.9934 H   0  0  0  0  0  0  0  0  0  0  0  0
    1.6349   -1.0302   -0.9467 H   0  0  0  0  0  0  0  0  0  0  0  0
   -2.0583    0.6738    0.2238 F   0  0  0  0  0  0  0  0  0  0  0  0
   -1.0394   -1.2909    0.1520 O   0  0  0  0  0  0  0  0  0  0  0  0
  1  8  1  0  0  0  0
  2  3  1  0  0  0  0
  2  1  2  0  0  0  0
  3  4  1  0  0  0  0
  3  6  1  0  0  0  0
  4 11  2  0  0  0  0
  4 10  1  0  0  0  0
  5  3  1  0  0  0  0
  7  1  1  0  0  0  0
  9  2  1  0  0  0  0
M  END
$$$$
