Compound 059 optimized with r2SCAN-3c
 OpenBabel12112416273D

 11 10  0  0  0  0  0  0  0  0999 V2000
    2.6874    0.1012    0.3601 C   0  0  0  0  0  0  0  0  0  0  0  0
    1.5893   -0.1706   -0.3339 C   0  0  0  0  0  0  0  0  0  0  0  0
    0.3500    0.6690   -0.2893 C   0  0  0  0  0  0  0  0  0  0  0  0
   -0.8878   -0.1328   -0.0109 C   0  0  0  0  0  0  0  0  0  0  0  0
    0.1747    1.1730   -1.2528 H   0  0  0  0  0  0  0  0  0  0  0  0
    0.4203    1.4698    0.4563 H   0  0  0  0  0  0  0  0  0  0  0  0
    3.5678   -0.5290    0.2884 H   0  0  0  0  0  0  0  0  0  0  0  0
    2.7449    0.9600    1.0249 H   0  0  0  0  0  0  0  0  0  0  0  0
    1.5496   -1.0452   -0.9802 H   0  0  0  0  0  0  0  0  0  0  0  0
   -1.9646    0.7019    0.1313 F   0  0  0  0  0  0  0  0  0  0  0  0
   -1.0229   -1.3070    0.0745 O   0  0  0  0  0  0  0  0  0  0  0  0
  1  8  1  0  0  0  0
  2  3  1  0  0  0  0
  2  1  2  0  0  0  0
  3  4  1  0  0  0  0
  3  6  1  0  0  0  0
  4 11  2  0  0  0  0
  4 10  1  0  0  0  0
  5  3  1  0  0  0  0
  7  1  1  0  0  0  0
  9  2  1  0  0  0  0
M  END
$$$$
