Compound 059, distorted structure 04
 OpenBabel12112416273D

 11 10  0  0  0  0  0  0  0  0999 V2000
    2.6449    0.1582    0.2907 C   0  0  0  0  0  0  0  0  0  0  0  0
    1.5893   -0.1974   -0.3465 C   0  0  0  0  0  0  0  0  0  0  0  0
    0.2925    0.6533   -0.2288 C   0  0  0  0  0  0  0  0  0  0  0  0
   -0.8866   -0.0812    0.0357 C   0  0  0  0  0  0  0  0  0  0  0  0
    0.1592    1.2330   -1.1982 H   0  0  0  0  0  0  0  0  0  0  0  0
    0.4672    1.4907    0.4388 H   0  0  0  0  0  0  0  0  0  0  0  0
    3.6225   -0.5019    0.2222 H   0  0  0  0  0  0  0  0  0  0  0  0
    2.6773    1.0129    0.9882 H   0  0  0  0  0  0  0  0  0  0  0  0
    1.5612   -1.0948   -0.9436 H   0  0  0  0  0  0  0  0  0  0  0  0
   -1.9955    0.7514    0.1838 F   0  0  0  0  0  0  0  0  0  0  0  0
   -0.9603   -1.2624    0.0073 O   0  0  0  0  0  0  0  0  0  0  0  0
  1  8  1  0  0  0  0
  2  3  1  0  0  0  0
  2  1  2  0  0  0  0
  3  4  1  0  0  0  0
  3  6  1  0  0  0  0
  4 10  1  0  0  0  0
  5  3  1  0  0  0  0
  7  1  1  0  0  0  0
  9  2  1  0  0  0  0
 11  4  2  0  0  0  0
M  END
$$$$
