Compound 059, distorted structure 03
 OpenBabel12112412253D

 11 10  0  0  0  0  0  0  0  0999 V2000
    2.7081    0.0786    0.4037 C   0  0  0  0  0  0  0  0  0  0  0  0
    1.6492   -0.1475   -0.2769 C   0  0  0  0  0  0  0  0  0  0  0  0
    0.3434    0.6179   -0.3206 C   0  0  0  0  0  0  0  0  0  0  0  0
   -0.9321   -0.1275   -0.0145 C   0  0  0  0  0  0  0  0  0  0  0  0
    0.1795    1.1208   -1.2960 H   0  0  0  0  0  0  0  0  0  0  0  0
    0.4344    1.4781    0.4165 H   0  0  0  0  0  0  0  0  0  0  0  0
    3.6186   -0.4899    0.2570 H   0  0  0  0  0  0  0  0  0  0  0  0
    2.7907    0.9750    1.0698 H   0  0  0  0  0  0  0  0  0  0  0  0
    1.5513   -1.0762   -0.9660 H   0  0  0  0  0  0  0  0  0  0  0  0
   -2.0172    0.6906    0.1279 F   0  0  0  0  0  0  0  0  0  0  0  0
   -1.0564   -1.2802    0.1157 O   0  0  0  0  0  0  0  0  0  0  0  0
  1  8  1  0  0  0  0
  2  1  2  0  0  0  0
  3  2  1  0  0  0  0
  3  4  1  0  0  0  0
  3  6  1  0  0  0  0
  4 11  2  0  0  0  0
  4 10  1  0  0  0  0
  5  3  1  0  0  0  0
  7  1  1  0  0  0  0
  9  2  1  0  0  0  0
M  END
$$$$
