Compound 060, distorted structure 01
 OpenBabel12112416273D

 12 12  0  0  0  0  0  0  0  0999 V2000
    1.8880    0.0039   -0.0128 C   0  0  0  0  0  0  0  0  0  0  0  0
    1.2059   -1.1944   -0.0095 C   0  0  0  0  0  0  0  0  0  0  0  0
   -0.1899   -1.2078   -0.0169 C   0  0  0  0  0  0  0  0  0  0  0  0
   -0.8375   -0.0099   -0.0003 C   0  0  0  0  0  0  0  0  0  0  0  0
   -0.1951    1.2091    0.0184 C   0  0  0  0  0  0  0  0  0  0  0  0
    1.1950    1.2085    0.0126 C   0  0  0  0  0  0  0  0  0  0  0  0
   -2.2204    0.0158    0.0182 F   0  0  0  0  0  0  0  0  0  0  0  0
    2.9665   -0.0090    0.0041 H   0  0  0  0  0  0  0  0  0  0  0  0
    1.7321   -2.1607   -0.0051 H   0  0  0  0  0  0  0  0  0  0  0  0
   -0.7648   -2.1483   -0.0171 H   0  0  0  0  0  0  0  0  0  0  0  0
   -0.7528    2.1220    0.0042 H   0  0  0  0  0  0  0  0  0  0  0  0
    1.7533    2.1629   -0.0172 H   0  0  0  0  0  0  0  0  0  0  0  0
  1  2  2  0  0  0  0
  1  8  1  0  0  0  0
  1  6  1  0  0  0  0
  2  9  1  0  0  0  0
  3  2  1  0  0  0  0
  3  4  2  0  0  0  0
  4  7  1  0  0  0  0
  4  5  1  0  0  0  0
  6  5  2  0  0  0  0
 10  3  1  0  0  0  0
 11  5  1  0  0  0  0
 12  6  1  0  0  0  0
M  END
$$$$
