Compound 060, distorted structure 09
 OpenBabel12112412253D

 12 12  0  0  0  0  0  0  0  0999 V2000
    1.9789    0.0085   -0.0311 C   0  0  0  0  0  0  0  0  0  0  0  0
    1.2131   -1.1255    0.0014 C   0  0  0  0  0  0  0  0  0  0  0  0
   -0.1778   -1.2565   -0.0516 C   0  0  0  0  0  0  0  0  0  0  0  0
   -0.8962    0.0681    0.0350 C   0  0  0  0  0  0  0  0  0  0  0  0
   -0.1146    1.2223    0.0120 C   0  0  0  0  0  0  0  0  0  0  0  0
    1.1612    1.1658    0.0160 C   0  0  0  0  0  0  0  0  0  0  0  0
   -2.1930   -0.0630   -0.0190 F   0  0  0  0  0  0  0  0  0  0  0  0
    2.9035    0.0684   -0.0168 H   0  0  0  0  0  0  0  0  0  0  0  0
    1.6988   -2.1768   -0.0476 H   0  0  0  0  0  0  0  0  0  0  0  0
   -0.8081   -2.0697   -0.0673 H   0  0  0  0  0  0  0  0  0  0  0  0
   -0.7488    2.1811   -0.0496 H   0  0  0  0  0  0  0  0  0  0  0  0
    1.7377    2.2288   -0.0370 H   0  0  0  0  0  0  0  0  0  0  0  0
  1  8  1  0  0  0  0
  1  2  2  0  0  0  0
  1  6  1  0  0  0  0
  3  2  1  0  0  0  0
  3  4  2  0  0  0  0
  5  6  2  0  0  0  0
  5  4  1  0  0  0  0
  7  4  1  0  0  0  0
  9  2  1  0  0  0  0
 10  3  1  0  0  0  0
 11  5  1  0  0  0  0
 12  6  1  0  0  0  0
M  END
$$$$
