Compound 060, distorted structure 02
 OpenBabel12112412253D

 12 12  0  0  0  0  0  0  0  0999 V2000
    1.8886   -0.0205    0.0197 C   0  0  0  0  0  0  0  0  0  0  0  0
    1.1925   -1.2010   -0.0123 C   0  0  0  0  0  0  0  0  0  0  0  0
   -0.1836   -1.2449    0.0211 C   0  0  0  0  0  0  0  0  0  0  0  0
   -0.8675    0.0286   -0.0177 C   0  0  0  0  0  0  0  0  0  0  0  0
   -0.2082    1.2166   -0.0036 C   0  0  0  0  0  0  0  0  0  0  0  0
    1.2269    1.2198    0.0125 C   0  0  0  0  0  0  0  0  0  0  0  0
   -2.1753    0.0010   -0.0094 F   0  0  0  0  0  0  0  0  0  0  0  0
    2.9953   -0.0052   -0.0023 H   0  0  0  0  0  0  0  0  0  0  0  0
    1.7214   -2.1572   -0.0068 H   0  0  0  0  0  0  0  0  0  0  0  0
   -0.7656   -2.1589    0.0232 H   0  0  0  0  0  0  0  0  0  0  0  0
   -0.7324    2.1704    0.0185 H   0  0  0  0  0  0  0  0  0  0  0  0
    1.7497    2.1513   -0.0101 H   0  0  0  0  0  0  0  0  0  0  0  0
  2  9  1  0  0  0  0
  2  1  2  0  0  0  0
  2  3  1  0  0  0  0
  3 10  1  0  0  0  0
  4  7  1  0  0  0  0
  4  5  1  0  0  0  0
  4  3  2  0  0  0  0
  5  6  2  0  0  0  0
  5 11  1  0  0  0  0
  6  1  1  0  0  0  0
  8  1  1  0  0  0  0
 12  6  1  0  0  0  0
M  END
$$$$
