Compound 061, distorted structure 07
 OpenBabel12112416273D

 12 11  0  0  0  0  0  0  0  0999 V2000
    0.5269    0.9946    0.0277 C   0  0  0  0  0  0  0  0  0  0  0  0
   -0.8206    0.5230    0.2988 C   0  0  0  0  0  0  0  0  0  0  0  0
   -2.0644    0.1364    0.4996 C   0  0  0  0  0  0  0  0  0  0  0  0
   -2.4166    0.1240    1.4660 H   0  0  0  0  0  0  0  0  0  0  0  0
   -2.9057   -0.1980   -0.4509 F   0  0  0  0  0  0  0  0  0  0  0  0
    1.5681    0.0666   -0.0819 C   0  0  0  0  0  0  0  0  0  0  0  0
    0.6454    1.8887   -0.1954 H   0  0  0  0  0  0  0  0  0  0  0  0
    1.2807   -1.4990    0.1340 C   0  0  0  0  0  0  0  0  0  0  0  0
    2.2749   -1.9596    0.0638 H   0  0  0  0  0  0  0  0  0  0  0  0
    0.7127   -1.8821   -0.6759 H   0  0  0  0  0  0  0  0  0  0  0  0
    0.7332   -1.6450    1.0383 H   0  0  0  0  0  0  0  0  0  0  0  0
    2.7181    0.4822   -0.2840 O   0  0  0  0  0  0  0  0  0  0  0  0
  1  2  2  0  0  0  0
  2  3  2  0  0  0  0
  3  4  1  0  0  0  0
  5  3  1  0  0  0  0
  6  1  1  0  0  0  0
  6  8  1  0  0  0  0
  7  1  1  0  0  0  0
  8 11  1  0  0  0  0
  9  8  1  0  0  0  0
 10  8  1  0  0  0  0
 12  6  2  0  0  0  0
M  END
$$$$
