Compound 062, distorted structure 09
 OpenBabel12112416273D

 14 12  0  0  0  0  0  0  0  0999 V2000
   -2.2344   -0.0413   -0.0011 C   0  0  0  0  0  0  0  0  0  0  0  0
   -0.6905    0.2682   -0.1914 C   0  0  0  0  0  0  0  0  0  0  0  0
   -2.9935    0.8377   -0.2972 H   0  0  0  0  0  0  0  0  0  0  0  0
   -2.2711   -0.3589    1.1477 H   0  0  0  0  0  0  0  0  0  0  0  0
   -2.5091   -0.9767   -0.4654 H   0  0  0  0  0  0  0  0  0  0  0  0
    0.3673   -0.6646    0.2454 C   0  0  0  0  0  0  0  0  0  0  0  0
   -0.4145    1.2775    0.4230 H   0  0  0  0  0  0  0  0  0  0  0  0
   -0.6957    0.5473   -1.1483 H   0  0  0  0  0  0  0  0  0  0  0  0
    1.7254   -0.2721   -0.2571 C   0  0  0  0  0  3  0  0  0  0  0  0
    0.1233   -1.6976   -0.3924 H   0  0  0  0  0  0  0  0  0  0  0  0
    0.0738   -0.8478    1.3906 H   0  0  0  0  0  0  0  0  0  0  0  0
    2.2798    1.4356    0.4922 *   0  0  0  0  0  0  0  0  0  0  0  0
    1.7933   -0.2814   -1.2686 H   0  0  0  0  0  0  0  0  0  0  0  0
    2.3294   -1.0802    0.2042 H   0  0  0  0  0  0  0  0  0  0  0  0
  1  4  1  0  0  0  0
  2  1  1  0  0  0  0
  2  6  1  0  0  0  0
  2  7  1  0  0  0  0
  3  1  1  0  0  0  0
  5  1  1  0  0  0  0
  6 11  1  0  0  0  0
  8  2  1  0  0  0  0
  9 14  1  0  0  0  0
  9  6  1  0  0  0  0
 10  6  1  0  0  0  0
 13  9  1  0  0  0  0
M  END
$$$$
