Compound 064, distorted structure 08
 OpenBabel12112416273D

 19 18  0  0  0  0  0  0  0  0999 V2000
    0.0371   -0.4399   -0.0743 B   0  0  0  0  0  0  0  0  0  0  0  0
   -0.6913    0.7930    0.0235 C   0  0  0  0  0  0  0  0  0  0  0  0
    1.5371   -0.4799   -0.0248 C   0  0  0  0  0  0  0  0  0  0  0  0
   -0.8302   -1.7557    0.1503 C   0  0  0  0  0  0  0  0  0  0  0  0
   -2.2627    0.9338    0.1400 C   0  0  0  0  0  0  0  0  0  0  0  0
   -0.3700    1.4803   -0.7843 H   0  0  0  0  0  0  0  0  0  0  0  0
   -0.4066    1.5240    0.8353 H   0  0  0  0  0  0  0  0  0  0  0  0
   -2.7931    0.3102   -0.7530 H   0  0  0  0  0  0  0  0  0  0  0  0
   -2.7627    1.8567    0.0256 H   0  0  0  0  0  0  0  0  0  0  0  0
   -2.6664    0.2959    0.8582 H   0  0  0  0  0  0  0  0  0  0  0  0
    1.8597   -1.1064   -1.0509 H   0  0  0  0  0  0  0  0  0  0  0  0
    1.8487   -1.2134    0.7489 H   0  0  0  0  0  0  0  0  0  0  0  0
    2.3236    0.8511    0.0832 C   0  0  0  0  0  0  0  0  0  0  0  0
    1.9602    1.4818   -0.7081 H   0  0  0  0  0  0  0  0  0  0  0  0
    3.3384    0.6091   -0.0716 H   0  0  0  0  0  0  0  0  0  0  0  0
    2.0985    1.2748    1.0457 H   0  0  0  0  0  0  0  0  0  0  0  0
   -1.1584   -2.0136    1.0825 H   0  0  0  0  0  0  0  0  0  0  0  0
   -0.1250   -2.6798    0.0413 H   0  0  0  0  0  0  0  0  0  0  0  0
   -1.5523   -1.9605   -0.6020 H   0  0  0  0  0  0  0  0  0  0  0  0
  1  3  1  0  0  0  0
  1  2  1  0  0  0  0
  1  4  1  0  0  0  0
  2  5  1  0  0  0  0
  2  7  1  0  0  0  0
  3 13  1  0  0  0  0
  3 12  1  0  0  0  0
  4 17  1  0  0  0  0
  5 10  1  0  0  0  0
  6  2  1  0  0  0  0
  8  5  1  0  0  0  0
  9  5  1  0  0  0  0
 11  3  1  0  0  0  0
 13 16  1  0  0  0  0
 14 13  1  0  0  0  0
 15 13  1  0  0  0  0
 18  4  1  0  0  0  0
 19  4  1  0  0  0  0
M  END
$$$$
