Compound 065, distorted structure 02
 OpenBabel12112412253D

 20 19  0  0  0  0  0  0  0  0999 V2000
    0.6807   -0.3559   -0.1946 N   0  0  0  0  0  4  0  0  0  0  0  0
   -0.7038    0.4943    0.1861 B   0  0  0  0  0  0  0  0  0  0  0  0
    1.5317    0.2525   -1.2247 C   0  0  0  0  0  0  0  0  0  0  0  0
    0.9402    0.2846   -2.1596 H   0  0  0  0  0  0  0  0  0  0  0  0
    2.4238   -0.3322   -1.4145 H   0  0  0  0  0  0  0  0  0  0  0  0
    1.7718    1.2579   -0.9440 H   0  0  0  0  0  0  0  0  0  0  0  0
    1.4697   -0.6046    1.0550 C   0  0  0  0  0  0  0  0  0  0  0  0
    0.3268   -1.3139   -0.4875 H   0  0  0  0  0  0  0  0  0  0  0  0
    1.7671    0.3814    1.4956 H   0  0  0  0  0  0  0  0  0  0  0  0
    2.3792   -1.1524    0.8041 H   0  0  0  0  0  0  0  0  0  0  0  0
    0.9088   -1.1335    1.8109 H   0  0  0  0  0  0  0  0  0  0  0  0
   -1.5251    0.6655   -1.2117 C   0  0  0  0  0  0  0  0  0  0  0  0
   -1.7732   -0.3314   -1.6706 H   0  0  0  0  0  0  0  0  0  0  0  0
   -1.0758    1.2391   -2.0366 H   0  0  0  0  0  0  0  0  0  0  0  0
   -2.5080    1.1230   -1.0303 H   0  0  0  0  0  0  0  0  0  0  0  0
   -1.5686   -0.3121    1.2839 C   0  0  0  0  0  0  0  0  0  0  0  0
   -0.2284    1.5560    0.5720 H   0  0  0  0  0  0  0  0  0  0  0  0
   -2.5243    0.2151    1.3918 H   0  0  0  0  0  0  0  0  0  0  0  0
   -1.1087   -0.2909    2.2952 H   0  0  0  0  0  0  0  0  0  0  0  0
   -1.7995   -1.3432    0.9877 H   0  0  0  0  0  0  0  0  0  0  0  0
  1  2  1  0  0  0  0
  1  7  1  0  0  0  0
  2 17  1  0  0  0  0
  2 16  1  0  0  0  0
  3  6  1  0  0  0  0
  3  1  1  0  0  0  0
  4  3  1  0  0  0  0
  5  3  1  0  0  0  0
  7  9  1  0  0  0  0
  7 11  1  0  0  0  0
  8  1  1  0  0  0  0
 10  7  1  0  0  0  0
 12 15  1  0  0  0  0
 12  2  1  0  0  0  0
 13 12  1  0  0  0  0
 14 12  1  0  0  0  0
 16 18  1  0  0  0  0
 16 19  1  0  0  0  0
 20 16  1  0  0  0  0
M  END
$$$$
