Compound 065, distorted structure 03
 OpenBabel12112412253D

 20 19  0  0  0  0  0  0  0  0999 V2000
    0.6357   -0.3462   -0.1442 N   0  0  0  0  0  4  0  0  0  0  0  0
   -0.7272    0.5149    0.1666 B   0  0  0  0  0  0  0  0  0  0  0  0
    1.5295    0.2488   -1.2199 C   0  0  0  0  0  0  0  0  0  0  0  0
    0.9265    0.2322   -2.1525 H   0  0  0  0  0  0  0  0  0  0  0  0
    2.3875   -0.3403   -1.3902 H   0  0  0  0  0  0  0  0  0  0  0  0
    1.7675    1.2453   -0.9346 H   0  0  0  0  0  0  0  0  0  0  0  0
    1.4845   -0.6023    1.0377 C   0  0  0  0  0  0  0  0  0  0  0  0
    0.3771   -1.3244   -0.4946 H   0  0  0  0  0  0  0  0  0  0  0  0
    1.7824    0.4069    1.4778 H   0  0  0  0  0  0  0  0  0  0  0  0
    2.3750   -1.1388    0.7927 H   0  0  0  0  0  0  0  0  0  0  0  0
    0.9313   -1.1824    1.7530 H   0  0  0  0  0  0  0  0  0  0  0  0
   -1.5336    0.6592   -1.2667 C   0  0  0  0  0  0  0  0  0  0  0  0
   -1.7611   -0.3502   -1.6661 H   0  0  0  0  0  0  0  0  0  0  0  0
   -1.0674    1.2907   -2.0363 H   0  0  0  0  0  0  0  0  0  0  0  0
   -2.5191    1.0742   -1.0482 H   0  0  0  0  0  0  0  0  0  0  0  0
   -1.5756   -0.3023    1.2923 C   0  0  0  0  0  0  0  0  0  0  0  0
   -0.2254    1.5637    0.5254 H   0  0  0  0  0  0  0  0  0  0  0  0
   -2.4946    0.1663    1.4359 H   0  0  0  0  0  0  0  0  0  0  0  0
   -1.1092   -0.2736    2.2805 H   0  0  0  0  0  0  0  0  0  0  0  0
   -1.7811   -1.2923    1.0315 H   0  0  0  0  0  0  0  0  0  0  0  0
  1  2  1  0  0  0  0
  1  7  1  0  0  0  0
  2 17  1  0  0  0  0
  2 16  1  0  0  0  0
  3  6  1  0  0  0  0
  3  1  1  0  0  0  0
  4  3  1  0  0  0  0
  5  3  1  0  0  0  0
  7  9  1  0  0  0  0
  7 11  1  0  0  0  0
  8  1  1  0  0  0  0
 10  7  1  0  0  0  0
 12 15  1  0  0  0  0
 12  2  1  0  0  0  0
 13 12  1  0  0  0  0
 14 12  1  0  0  0  0
 16 18  1  0  0  0  0
 16 19  1  0  0  0  0
 20 16  1  0  0  0  0
M  END
$$$$
