Compound 065, distorted structure 08
 OpenBabel12112416273D

 20 19  0  0  0  0  0  0  0  0999 V2000
    0.6836   -0.3432   -0.1845 N   0  0  0  0  0  4  0  0  0  0  0  0
   -0.7464    0.4818    0.1764 B   0  0  0  0  0  0  0  0  0  0  0  0
    1.5673    0.2687   -1.1752 C   0  0  0  0  0  0  0  0  0  0  0  0
    0.8786    0.3056   -2.1420 H   0  0  0  0  0  0  0  0  0  0  0  0
    2.4784   -0.3650   -1.4625 H   0  0  0  0  0  0  0  0  0  0  0  0
    1.6680    1.2387   -0.8878 H   0  0  0  0  0  0  0  0  0  0  0  0
    1.5755   -0.6421    1.1258 C   0  0  0  0  0  0  0  0  0  0  0  0
    0.2766   -1.2725   -0.4567 H   0  0  0  0  0  0  0  0  0  0  0  0
    1.7671    0.4091    1.4201 H   0  0  0  0  0  0  0  0  0  0  0  0
    2.4965   -1.1607    0.7452 H   0  0  0  0  0  0  0  0  0  0  0  0
    0.9294   -1.0781    1.7528 H   0  0  0  0  0  0  0  0  0  0  0  0
   -1.5143    0.5629   -1.2794 C   0  0  0  0  0  0  0  0  0  0  0  0
   -1.7308   -0.3536   -1.7173 H   0  0  0  0  0  0  0  0  0  0  0  0
   -1.0966    1.2429   -1.9401 H   0  0  0  0  0  0  0  0  0  0  0  0
   -2.5370    1.0560   -1.0332 H   0  0  0  0  0  0  0  0  0  0  0  0
   -1.5987   -0.2144    1.2229 C   0  0  0  0  0  0  0  0  0  0  0  0
   -0.2503    1.6009    0.5133 H   0  0  0  0  0  0  0  0  0  0  0  0
   -2.5760    0.2222    1.5043 H   0  0  0  0  0  0  0  0  0  0  0  0
   -1.1172   -0.3437    2.3488 H   0  0  0  0  0  0  0  0  0  0  0  0
   -1.7166   -1.3546    1.0477 H   0  0  0  0  0  0  0  0  0  0  0  0
  1  2  1  0  0  0  0
  1  7  1  0  0  0  0
  2 17  1  0  0  0  0
  2 16  1  0  0  0  0
  3  6  1  0  0  0  0
  3  1  1  0  0  0  0
  4  3  1  0  0  0  0
  5  3  1  0  0  0  0
  7  9  1  0  0  0  0
  7 11  1  0  0  0  0
  8  1  1  0  0  0  0
 10  7  1  0  0  0  0
 12 15  1  0  0  0  0
 12  2  1  0  0  0  0
 13 12  1  0  0  0  0
 14 12  1  0  0  0  0
 16 18  1  0  0  0  0
 16 19  1  0  0  0  0
 20 16  1  0  0  0  0
M  END
$$$$
