Compound 065, distorted structure 04
 OpenBabel12112412253D

 20 19  0  0  0  0  0  0  0  0999 V2000
    0.6678   -0.3991   -0.1586 N   0  0  0  0  0  4  0  0  0  0  0  0
   -0.6726    0.5404    0.2021 B   0  0  0  0  0  0  0  0  0  0  0  0
    1.4920    0.1874   -1.2142 C   0  0  0  0  0  0  0  0  0  0  0  0
    0.9414    0.2535   -2.1470 H   0  0  0  0  0  0  0  0  0  0  0  0
    2.4293   -0.3844   -1.4079 H   0  0  0  0  0  0  0  0  0  0  0  0
    1.7802    1.2289   -0.9314 H   0  0  0  0  0  0  0  0  0  0  0  0
    1.5383   -0.5930    1.0801 C   0  0  0  0  0  0  0  0  0  0  0  0
    0.3561   -1.2496   -0.5272 H   0  0  0  0  0  0  0  0  0  0  0  0
    1.7053    0.3487    1.4763 H   0  0  0  0  0  0  0  0  0  0  0  0
    2.3783   -1.1674    0.7926 H   0  0  0  0  0  0  0  0  0  0  0  0
    0.8715   -1.1933    1.7832 H   0  0  0  0  0  0  0  0  0  0  0  0
   -1.5479    0.6477   -1.2096 C   0  0  0  0  0  0  0  0  0  0  0  0
   -1.7662   -0.3168   -1.7156 H   0  0  0  0  0  0  0  0  0  0  0  0
   -1.1086    1.2232   -2.0337 H   0  0  0  0  0  0  0  0  0  0  0  0
   -2.5170    1.1258   -1.0316 H   0  0  0  0  0  0  0  0  0  0  0  0
   -1.5596   -0.2792    1.2577 C   0  0  0  0  0  0  0  0  0  0  0  0
   -0.2888    1.5582    0.5096 H   0  0  0  0  0  0  0  0  0  0  0  0
   -2.5674    0.2309    1.3968 H   0  0  0  0  0  0  0  0  0  0  0  0
   -1.0742   -0.3000    2.3067 H   0  0  0  0  0  0  0  0  0  0  0  0
   -1.7284   -1.3050    1.0393 H   0  0  0  0  0  0  0  0  0  0  0  0
  1  2  1  0  0  0  0
  1  7  1  0  0  0  0
  2 17  1  0  0  0  0
  2 16  1  0  0  0  0
  3  6  1  0  0  0  0
  3  1  1  0  0  0  0
  4  3  1  0  0  0  0
  5  3  1  0  0  0  0
  7  9  1  0  0  0  0
  7 11  1  0  0  0  0
  8  1  1  0  0  0  0
 10  7  1  0  0  0  0
 12 15  1  0  0  0  0
 12  2  1  0  0  0  0
 13 12  1  0  0  0  0
 14 12  1  0  0  0  0
 16 18  1  0  0  0  0
 16 19  1  0  0  0  0
 20 16  1  0  0  0  0
M  END
$$$$
