Compound 067, distorted structure 06
 OpenBabel12112416273D

 14 12  0  0  0  0  0  0  0  0999 V2000
    1.8628   -0.1121    0.4648 C   0  0  0  0  0  3  0  0  0  0  0  0
    1.1831   -1.2253    0.4386 O   0  0  0  0  0  1  0  0  0  0  0  0
   -1.5363    0.0375    0.5874 C   0  0  0  0  0  0  0  0  0  0  0  0
   -1.1579    1.0973    0.5582 O   0  0  0  0  0  0  0  0  0  0  0  0
    1.8568    0.8894   -0.6860 C   0  0  0  0  0  0  0  0  0  0  0  0
    2.5877    0.0716    1.2873 H   0  0  0  0  0  0  0  0  0  0  0  0
    1.2239    0.6188   -1.4510 H   0  0  0  0  0  0  0  0  0  0  0  0
    2.8864    1.1123   -0.9265 H   0  0  0  0  0  0  0  0  0  0  0  0
    1.4373    1.8265   -0.2101 H   0  0  0  0  0  0  0  0  0  0  0  0
   -1.9588   -0.7656   -0.6540 C   0  0  0  0  0  0  0  0  0  0  0  0
   -1.3672   -0.6265    1.4588 H   0  0  0  0  0  0  0  0  0  0  0  0
   -1.9155   -0.0810   -1.5561 H   0  0  0  0  0  0  0  0  0  0  0  0
   -2.9196   -1.1884   -0.4859 H   0  0  0  0  0  0  0  0  0  0  0  0
   -1.2476   -1.6330   -0.7196 H   0  0  0  0  0  0  0  0  0  0  0  0
  1  6  1  0  0  0  0
  2  1  1  0  0  0  0
  3 11  1  0  0  0  0
  4  3  2  0  0  0  0
  5  9  1  0  0  0  0
  5  1  1  0  0  0  0
  7  5  1  0  0  0  0
  8  5  1  0  0  0  0
 10 13  1  0  0  0  0
 10  3  1  0  0  0  0
 12 10  1  0  0  0  0
 14 10  1  0  0  0  0
M  END
$$$$
