Compound 068, distorted structure 07
 OpenBabel12112412253D

 17 16  0  0  0  0  0  0  0  0999 V2000
    1.4661    0.0594    0.6794 C   0  0  0  0  0  0  0  0  0  0  0  0
    0.7282   -1.1658    0.6659 C   0  0  0  0  0  0  0  0  0  0  0  0
    0.6803    1.2648    0.6555 C   0  0  0  0  0  0  0  0  0  0  0  0
   -0.7601   -1.1957    0.7020 C   0  0  0  0  0  0  0  0  0  0  0  0
   -0.6493    1.2677    0.6479 C   0  0  0  0  0  0  0  0  0  0  0  0
   -1.3521   -0.0584    0.7127 C   0  0  0  0  0  0  0  0  0  0  0  0
    0.0253   -0.0400   -3.0917 C   0  0  0  0  0  0  0  0  0  0  0  0
    2.4918    0.0776    0.7018 H   0  0  0  0  0  0  0  0  0  0  0  0
    1.2528   -2.2183    0.5971 H   0  0  0  0  0  0  0  0  0  0  0  0
    1.2317    2.1295    0.5930 H   0  0  0  0  0  0  0  0  0  0  0  0
   -1.1911   -2.1319    0.5967 H   0  0  0  0  0  0  0  0  0  0  0  0
   -1.2516    2.2186    0.6699 H   0  0  0  0  0  0  0  0  0  0  0  0
   -2.4101    0.0374    0.7089 H   0  0  0  0  0  0  0  0  0  0  0  0
    0.9751    0.0688   -3.5366 H   0  0  0  0  0  0  0  0  0  0  0  0
   -0.4828    0.8875   -3.4984 H   0  0  0  0  0  0  0  0  0  0  0  0
   -0.5551   -0.9003   -3.4730 H   0  0  0  0  0  0  0  0  0  0  0  0
   -0.0013    0.0168   -2.0541 H   0  0  0  0  0  0  0  0  0  0  0  0
  1  8  1  0  0  0  0
  2  1  1  0  0  0  0
  2  4  2  0  0  0  0
  3  1  2  0  0  0  0
  4  6  1  0  0  0  0
  5  3  1  0  0  0  0
  5 12  1  0  0  0  0
  5  6  2  0  0  0  0
  7 17  1  0  0  0  0
  9  2  1  0  0  0  0
 10  3  1  0  0  0  0
 11  4  1  0  0  0  0
 13  6  1  0  0  0  0
 14  7  1  0  0  0  0
 15  7  1  0  0  0  0
 16  7  1  0  0  0  0
M  END
$$$$
