Compound 069, distorted structure 04
 OpenBabel12112416273D

 17 16  0  0  0  0  0  0  0  0999 V2000
    1.5626    1.1309   -0.0044 N   0  0  0  0  0  4  0  0  0  0  0  0
    0.7899    1.1667   -1.1291 C   0  0  0  0  0  0  0  0  0  0  0  0
    1.4116    1.1163   -2.0506 H   0  0  0  0  0  0  0  0  0  0  0  0
   -0.5802    1.2970   -1.2258 C   0  0  0  0  0  0  0  0  0  0  0  0
   -1.0636    1.2415   -2.1311 H   0  0  0  0  0  0  0  0  0  0  0  0
   -1.2697    1.3348   -0.0386 C   0  0  0  0  0  0  0  0  0  0  0  0
   -2.3843    1.3873    0.0200 H   0  0  0  0  0  0  0  0  0  0  0  0
   -0.5666    1.2879    1.2037 C   0  0  0  0  0  3  0  0  0  0  0  0
   -1.1208    1.2657    2.1159 H   0  0  0  0  0  0  0  0  0  0  0  0
    0.8364    1.1825    1.1024 C   0  0  0  0  0  0  0  0  0  0  0  0
    1.3870    1.1198    2.0702 H   0  0  0  0  0  0  0  0  0  0  0  0
    0.1840   -2.2147    0.6686 C   0  0  0  0  0  0  0  0  0  0  0  0
    1.0558   -2.0625    1.2107 H   0  0  0  0  0  0  0  0  0  0  0  0
   -0.7879   -2.3949    1.2667 H   0  0  0  0  0  0  0  0  0  0  0  0
    0.1707   -2.2476   -0.7090 C   0  0  0  0  0  0  0  0  0  0  0  0
    1.1013   -2.0381   -1.2398 H   0  0  0  0  0  0  0  0  0  0  0  0
   -0.7201   -2.3895   -1.2692 H   0  0  0  0  0  0  0  0  0  0  0  0
  1 10  2  0  0  0  0
  2  1  2  0  0  0  0
  3  2  1  0  0  0  0
  4  2  1  0  0  0  0
  4  6  2  0  0  0  0
  5  4  1  0  0  0  0
  6  7  1  0  0  0  0
  6  8  1  0  0  0  0
  8  9  1  0  0  0  0
 10  8  1  0  0  0  0
 10 11  1  0  0  0  0
 12 13  1  0  0  0  0
 12 14  1  0  0  0  0
 15 12  2  0  0  0  0
 16 15  1  0  0  0  0
 17 15  1  0  0  0  0
M  END
$$$$
