Compound 069, distorted structure 08
 OpenBabel12112412253D

 17 16  0  0  0  0  0  0  0  0999 V2000
    1.5390    1.1659    0.0053 N   0  0  0  0  0  4  0  0  0  0  0  0
    0.8671    1.1139   -1.1722 C   0  0  0  0  0  0  0  0  0  0  0  0
    1.3618    1.1604   -2.0694 H   0  0  0  0  0  0  0  0  0  0  0  0
   -0.5572    1.2759   -1.1982 C   0  0  0  0  0  3  0  0  0  0  0  0
   -1.0102    1.3434   -2.1595 H   0  0  0  0  0  0  0  0  0  0  0  0
   -1.2412    1.2972    0.0460 C   0  0  0  0  0  0  0  0  0  0  0  0
   -2.2998    1.3207    0.0100 H   0  0  0  0  0  0  0  0  0  0  0  0
   -0.6328    1.2436    1.2348 C   0  0  0  0  0  0  0  0  0  0  0  0
   -1.1380    1.3359    2.1202 H   0  0  0  0  0  0  0  0  0  0  0  0
    0.8528    1.1415    1.1902 C   0  0  0  0  0  0  0  0  0  0  0  0
    1.4109    1.1691    2.0455 H   0  0  0  0  0  0  0  0  0  0  0  0
    0.1036   -2.1879    0.7264 C   0  0  0  0  0  0  0  0  0  0  0  0
    1.0485   -2.0576    1.1854 H   0  0  0  0  0  0  0  0  0  0  0  0
   -0.7390   -2.4257    1.1938 H   0  0  0  0  0  0  0  0  0  0  0  0
    0.1398   -2.2544   -0.7324 C   0  0  0  0  0  0  0  0  0  0  0  0
    1.0979   -2.0979   -1.1690 H   0  0  0  0  0  0  0  0  0  0  0  0
   -0.6989   -2.4498   -1.2062 H   0  0  0  0  0  0  0  0  0  0  0  0
  1 10  2  0  0  0  0
  2  1  2  0  0  0  0
  3  2  1  0  0  0  0
  4  2  1  0  0  0  0
  4  6  1  0  0  0  0
  5  4  1  0  0  0  0
  6  8  2  0  0  0  0
  7  6  1  0  0  0  0
  8  9  1  0  0  0  0
 10  8  1  0  0  0  0
 10 11  1  0  0  0  0
 12 13  1  0  0  0  0
 12 14  1  0  0  0  0
 15 12  2  0  0  0  0
 16 15  1  0  0  0  0
 17 15  1  0  0  0  0
M  END
$$$$
