Compound 070, distorted structure 06
 OpenBabel12112412253D

 18 16  0  0  0  0  0  0  0  0999 V2000
    1.6666    0.2153   -1.1386 C   0  0  0  0  0  0  0  0  0  0  0  0
    1.7195    1.2974   -1.5348 H   0  0  0  0  0  0  0  0  0  0  0  0
    2.3213   -0.3966   -1.6917 H   0  0  0  0  0  0  0  0  0  0  0  0
    2.1011    0.4177   -0.1658 H   0  0  0  0  0  0  0  0  0  0  0  0
    0.3562   -0.3495   -1.1040 C   0  0  0  0  0  0  0  0  0  0  0  0
    0.1264   -1.5843   -0.8231 O   0  0  0  0  0  0  0  0  0  0  0  0
   -0.6525    0.4598   -1.4772 N   0  0  0  0  0  0  0  0  0  0  0  0
   -0.5860    1.4927   -1.5467 H   0  0  0  0  0  0  0  0  0  0  0  0
   -2.1161    0.1244   -1.3624 C   0  0  0  0  0  0  0  0  0  0  0  0
   -2.0565   -0.9631   -1.3731 H   0  0  0  0  0  0  0  0  0  0  0  0
   -2.5763    0.4851   -0.4941 H   0  0  0  0  0  0  0  0  0  0  0  0
   -2.6986    0.4229   -2.2235 H   0  0  0  0  0  0  0  0  0  0  0  0
    0.0788    0.3218    2.4443 C   0  0  0  0  0  0  0  0  0  0  0  0
   -0.0054    1.1003    3.1092 H   0  0  0  0  0  0  0  0  0  0  0  0
   -0.6242    0.5050    1.5614 H   0  0  0  0  0  0  0  0  0  0  0  0
    0.7928   -0.7734    2.4368 C   0  0  0  0  0  0  0  0  0  0  0  0
    1.4104   -1.0081    3.4002 H   0  0  0  0  0  0  0  0  0  0  0  0
    0.7872   -1.4964    1.6907 H   0  0  0  0  0  0  0  0  0  0  0  0
  1  5  1  0  0  0  0
  1  4  1  0  0  0  0
  2  1  1  0  0  0  0
  3  1  1  0  0  0  0
  5  6  2  0  0  0  0
  7  9  1  0  0  0  0
  7  5  1  0  0  0  0
  8  7  1  0  0  0  0
  9 11  1  0  0  0  0
 10  9  1  0  0  0  0
 12  9  1  0  0  0  0
 13 14  1  0  0  0  0
 15 13  1  0  0  0  0
 16 13  2  0  0  0  0
 16 17  1  0  0  0  0
 18 16  1  0  0  0  0
M  END
$$$$
