Compound 072, distorted structure 03
 OpenBabel12112412253D

 22 20  0  0  0  0  0  0  0  0999 V2000
    1.9416    1.2593   -0.3964 C   0  0  0  0  0  0  0  0  0  0  0  0
    2.0146    0.0663    0.5369 C   0  0  0  0  0  0  0  0  0  0  0  0
    1.9604    2.2104    0.0902 H   0  0  0  0  0  0  0  0  0  0  0  0
    1.0068    1.2130   -0.9807 H   0  0  0  0  0  0  0  0  0  0  0  0
    2.7728    1.2240   -1.1338 H   0  0  0  0  0  0  0  0  0  0  0  0
    1.9330   -1.2615   -0.1299 C   0  0  0  0  0  0  0  0  0  0  0  0
    1.1727    0.1179    1.2901 H   0  0  0  0  0  0  0  0  0  0  0  0
    2.8769    0.1262    1.1788 H   0  0  0  0  0  0  0  0  0  0  0  0
    1.9649   -2.1067    0.5592 H   0  0  0  0  0  0  0  0  0  0  0  0
    2.7883   -1.4096   -0.8603 H   0  0  0  0  0  0  0  0  0  0  0  0
    0.9828   -1.3903   -0.7519 H   0  0  0  0  0  0  0  0  0  0  0  0
   -1.9130    1.3080    0.1258 C   0  0  0  0  0  0  0  0  0  0  0  0
   -1.9542   -0.0366   -0.5397 C   0  0  0  0  0  0  0  0  0  0  0  0
   -1.9498    2.1483   -0.5110 H   0  0  0  0  0  0  0  0  0  0  0  0
   -0.9922    1.3865    0.7651 H   0  0  0  0  0  0  0  0  0  0  0  0
   -2.7657    1.3961    0.8224 H   0  0  0  0  0  0  0  0  0  0  0  0
   -1.9390   -1.2531    0.4265 C   0  0  0  0  0  0  0  0  0  0  0  0
   -1.1652   -0.1009   -1.2350 H   0  0  0  0  0  0  0  0  0  0  0  0
   -2.9167   -0.1293   -1.1321 H   0  0  0  0  0  0  0  0  0  0  0  0
   -1.0437   -1.2149    1.0295 H   0  0  0  0  0  0  0  0  0  0  0  0
   -1.9528   -2.1838   -0.0906 H   0  0  0  0  0  0  0  0  0  0  0  0
   -2.7965   -1.2184    1.1092 H   0  0  0  0  0  0  0  0  0  0  0  0
  1  3  1  0  0  0  0
  1  2  1  0  0  0  0
  2  8  1  0  0  0  0
  2  7  1  0  0  0  0
  4  1  1  0  0  0  0
  5  1  1  0  0  0  0
  6  2  1  0  0  0  0
  6  9  1  0  0  0  0
 10  6  1  0  0  0  0
 11  6  1  0  0  0  0
 12 15  1  0  0  0  0
 12 16  1  0  0  0  0
 13 12  1  0  0  0  0
 13 17  1  0  0  0  0
 14 12  1  0  0  0  0
 17 20  1  0  0  0  0
 17 22  1  0  0  0  0
 18 13  1  0  0  0  0
 19 13  1  0  0  0  0
 21 17  1  0  0  0  0
M  END
$$$$
