Compound 072, distorted structure 08
 OpenBabel12112416273D

 22 20  0  0  0  0  0  0  0  0999 V2000
    2.0023    1.1766   -0.4454 C   0  0  0  0  0  0  0  0  0  0  0  0
    2.0456    0.0909    0.6070 C   0  0  0  0  0  0  0  0  0  0  0  0
    1.9413    2.1357    0.1968 H   0  0  0  0  0  0  0  0  0  0  0  0
    1.0107    1.1562   -1.0235 H   0  0  0  0  0  0  0  0  0  0  0  0
    2.8570    1.2028   -1.1741 H   0  0  0  0  0  0  0  0  0  0  0  0
    1.8612   -1.3239   -0.2042 C   0  0  0  0  0  0  0  0  0  0  0  0
    1.1286    0.1901    1.3312 H   0  0  0  0  0  0  0  0  0  0  0  0
    2.9286    0.1800    1.1916 H   0  0  0  0  0  0  0  0  0  0  0  0
    2.0097   -2.1977    0.5300 H   0  0  0  0  0  0  0  0  0  0  0  0
    2.7246   -1.3644   -0.8010 H   0  0  0  0  0  0  0  0  0  0  0  0
    0.9238   -1.3104   -0.7746 H   0  0  0  0  0  0  0  0  0  0  0  0
   -1.9579    1.2208    0.1172 C   0  0  0  0  0  0  0  0  0  0  0  0
   -2.0435    0.0025   -0.5843 C   0  0  0  0  0  0  0  0  0  0  0  0
   -2.0170    2.1416   -0.4918 H   0  0  0  0  0  0  0  0  0  0  0  0
   -1.0144    1.3725    0.6799 H   0  0  0  0  0  0  0  0  0  0  0  0
   -2.7349    1.3726    0.8690 H   0  0  0  0  0  0  0  0  0  0  0  0
   -1.9869   -1.2459    0.4922 C   0  0  0  0  0  0  0  0  0  0  0  0
   -1.1552   -0.1481   -1.1985 H   0  0  0  0  0  0  0  0  0  0  0  0
   -2.9543   -0.1574   -1.1114 H   0  0  0  0  0  0  0  0  0  0  0  0
   -0.9653   -1.1682    0.9861 H   0  0  0  0  0  0  0  0  0  0  0  0
   -2.0337   -2.2142   -0.0895 H   0  0  0  0  0  0  0  0  0  0  0  0
   -2.7028   -1.1812    1.1039 H   0  0  0  0  0  0  0  0  0  0  0  0
  1  3  1  0  0  0  0
  1  2  1  0  0  0  0
  2  8  1  0  0  0  0
  2  7  1  0  0  0  0
  4  1  1  0  0  0  0
  5  1  1  0  0  0  0
  6  9  1  0  0  0  0
  6  2  1  0  0  0  0
 10  6  1  0  0  0  0
 11  6  1  0  0  0  0
 12 15  1  0  0  0  0
 12 16  1  0  0  0  0
 13 12  1  0  0  0  0
 13 17  1  0  0  0  0
 14 12  1  0  0  0  0
 17 20  1  0  0  0  0
 17 22  1  0  0  0  0
 18 13  1  0  0  0  0
 19 13  1  0  0  0  0
 21 17  1  0  0  0  0
M  END
$$$$
