Compound 072, distorted structure 01
 OpenBabel12112412253D

 22 20  0  0  0  0  0  0  0  0999 V2000
    1.9343    1.2326   -0.4216 C   0  0  0  0  0  0  0  0  0  0  0  0
    1.9975    0.0481    0.5631 C   0  0  0  0  0  0  0  0  0  0  0  0
    1.9730    2.1831    0.1203 H   0  0  0  0  0  0  0  0  0  0  0  0
    1.0180    1.2232   -0.9893 H   0  0  0  0  0  0  0  0  0  0  0  0
    2.7624    1.1947   -1.1200 H   0  0  0  0  0  0  0  0  0  0  0  0
    1.9371   -1.2843   -0.1526 C   0  0  0  0  0  0  0  0  0  0  0  0
    1.1490    0.1114    1.2760 H   0  0  0  0  0  0  0  0  0  0  0  0
    2.9186    0.0995    1.1525 H   0  0  0  0  0  0  0  0  0  0  0  0
    1.9569   -2.1231    0.5395 H   0  0  0  0  0  0  0  0  0  0  0  0
    2.7679   -1.4009   -0.8507 H   0  0  0  0  0  0  0  0  0  0  0  0
    1.0016   -1.3752   -0.7412 H   0  0  0  0  0  0  0  0  0  0  0  0
   -1.9314    1.3095    0.1485 C   0  0  0  0  0  0  0  0  0  0  0  0
   -1.9928   -0.0490   -0.5666 C   0  0  0  0  0  0  0  0  0  0  0  0
   -1.9532    2.1383   -0.5335 H   0  0  0  0  0  0  0  0  0  0  0  0
   -1.0042    1.4001    0.7616 H   0  0  0  0  0  0  0  0  0  0  0  0
   -2.7878    1.3995    0.8427 H   0  0  0  0  0  0  0  0  0  0  0  0
   -1.9201   -1.2362    0.4192 C   0  0  0  0  0  0  0  0  0  0  0  0
   -1.1544   -0.1079   -1.2577 H   0  0  0  0  0  0  0  0  0  0  0  0
   -2.9013   -0.1085   -1.1567 H   0  0  0  0  0  0  0  0  0  0  0  0
   -1.0059   -1.1902    1.0002 H   0  0  0  0  0  0  0  0  0  0  0  0
   -1.9626   -2.1830   -0.1044 H   0  0  0  0  0  0  0  0  0  0  0  0
   -2.7634   -1.2052    1.1183 H   0  0  0  0  0  0  0  0  0  0  0  0
  1  3  1  0  0  0  0
  1  2  1  0  0  0  0
  2  8  1  0  0  0  0
  2  7  1  0  0  0  0
  4  1  1  0  0  0  0
  5  1  1  0  0  0  0
  6  9  1  0  0  0  0
  6  2  1  0  0  0  0
 10  6  1  0  0  0  0
 11  6  1  0  0  0  0
 12 15  1  0  0  0  0
 12 16  1  0  0  0  0
 13 12  1  0  0  0  0
 13 17  1  0  0  0  0
 14 12  1  0  0  0  0
 17 20  1  0  0  0  0
 17 22  1  0  0  0  0
 18 13  1  0  0  0  0
 19 13  1  0  0  0  0
 21 17  1  0  0  0  0
M  END
$$$$
