Compound 073, distorted structure 03
 OpenBabel12112412253D

 11 10  0  0  0  0  0  0  0  0999 V2000
   -0.5630   -1.2306    0.0468 C   0  0  0  0  0  0  0  0  0  0  0  0
   -0.6238   -0.3250    1.1841 C   0  0  0  0  0  3  0  0  0  0  0  0
   -0.5767    1.0289    0.6732 C   0  0  0  0  0  0  0  0  0  0  0  0
   -0.6053    0.8872   -0.7795 C   0  0  0  0  0  0  0  0  0  0  0  0
   -0.5470   -0.4387   -1.1366 C   0  0  0  0  0  0  0  0  0  0  0  0
   -0.6150    1.7328   -1.4405 H   0  0  0  0  0  0  0  0  0  0  0  0
   -0.6443   -0.8237   -2.0784 H   0  0  0  0  0  0  0  0  0  0  0  0
   -0.6726   -2.3085    0.1978 H   0  0  0  0  0  0  0  0  0  0  0  0
   -0.5927   -0.5681    2.1886 H   0  0  0  0  0  0  0  0  0  0  0  0
   -0.6856    1.9555    1.2150 H   0  0  0  0  0  0  0  0  0  0  0  0
    1.6022    0.0446    0.0415 *   0  0  0  0  0  0  0  0  0  0  0  0
  1  8  1  0  0  0  0
  1  2  1  0  0  0  0
  2  9  1  0  0  0  0
  3  2  1  0  0  0  0
  3 10  1  0  0  0  0
  4  3  2  0  0  0  0
  5  4  1  0  0  0  0
  5  1  2  0  0  0  0
  6  4  1  0  0  0  0
  7  5  1  0  0  0  0
M  END
$$$$
