Compound 073, distorted structure 06
 OpenBabel12112416273D

 11 10  0  0  0  0  0  0  0  0999 V2000
   -0.6425   -1.1195    0.0371 C   0  0  0  0  0  0  0  0  0  0  0  0
   -0.6810   -0.3468    1.1672 C   0  0  0  0  0  3  0  0  0  0  0  0
   -0.5499    1.0694    0.5877 C   0  0  0  0  0  0  0  0  0  0  0  0
   -0.6566    0.9038   -0.7930 C   0  0  0  0  0  0  0  0  0  0  0  0
   -0.5188   -0.3659   -1.1834 C   0  0  0  0  0  0  0  0  0  0  0  0
   -0.7356    1.8096   -1.4802 H   0  0  0  0  0  0  0  0  0  0  0  0
   -0.7326   -0.9133   -2.0389 H   0  0  0  0  0  0  0  0  0  0  0  0
   -0.6862   -2.2523    0.1120 H   0  0  0  0  0  0  0  0  0  0  0  0
   -0.7068   -0.5438    2.2834 H   0  0  0  0  0  0  0  0  0  0  0  0
   -0.5736    2.0512    1.1856 H   0  0  0  0  0  0  0  0  0  0  0  0
    1.6483   -0.0713   -0.1078 *   0  0  0  0  0  0  0  0  0  0  0  0
  1  8  1  0  0  0  0
  1  2  1  0  0  0  0
  2  9  1  0  0  0  0
  3  2  1  0  0  0  0
  3 10  1  0  0  0  0
  4  3  2  0  0  0  0
  5  4  1  0  0  0  0
  5  1  2  0  0  0  0
  6  4  1  0  0  0  0
  7  5  1  0  0  0  0
M  END
$$$$
