Compound 074, distorted structure 02
 OpenBabel12112412253D

 14 12  0  0  0  0  0  0  0  0999 V2000
    0.3948   -0.0221   -0.0025 C   0  0  0  0  0  3  0  0  0  0  0  0
    0.8569    0.8003    1.1539 C   0  0  0  0  0  0  0  0  0  0  0  0
   -2.0273    0.0221    0.0131 *   0  0  0  0  0  0  0  0  0  0  0  0
    0.8930   -1.4391    0.1664 C   0  0  0  0  0  0  0  0  0  0  0  0
    0.8901    0.6141   -1.3434 C   0  0  0  0  0  0  0  0  0  0  0  0
    0.5485    1.9049    1.1170 H   0  0  0  0  0  0  0  0  0  0  0  0
    1.9853    0.8543    1.1479 H   0  0  0  0  0  0  0  0  0  0  0  0
    0.5491    0.4818    2.1644 H   0  0  0  0  0  0  0  0  0  0  0  0
    0.5786   -1.9101    1.0615 H   0  0  0  0  0  0  0  0  0  0  0  0
    1.9867   -1.4190    0.1467 H   0  0  0  0  0  0  0  0  0  0  0  0
    0.5699   -2.0770   -0.6803 H   0  0  0  0  0  0  0  0  0  0  0  0
    0.5455   -0.0181   -2.1955 H   0  0  0  0  0  0  0  0  0  0  0  0
    2.0320    0.6233   -1.3240 H   0  0  0  0  0  0  0  0  0  0  0  0
    0.6035    1.6350   -1.4279 H   0  0  0  0  0  0  0  0  0  0  0  0
  1  4  1  0  0  0  0
  1  2  1  0  0  0  0
  2  8  1  0  0  0  0
  4  9  1  0  0  0  0
  5 13  1  0  0  0  0
  5  1  1  0  0  0  0
  6  2  1  0  0  0  0
  7  2  1  0  0  0  0
 10  4  1  0  0  0  0
 11  4  1  0  0  0  0
 12  5  1  0  0  0  0
 14  5  1  0  0  0  0
M  END
$$$$
