Compound 074, distorted structure 01
 OpenBabel12112416273D

 14 12  0  0  0  0  0  0  0  0999 V2000
    0.3693    0.0129    0.0005 C   0  0  0  0  0  3  0  0  0  0  0  0
    0.9034    0.8383    1.1567 C   0  0  0  0  0  0  0  0  0  0  0  0
   -2.0133   -0.0024    0.0100 *   0  0  0  0  0  0  0  0  0  0  0  0
    0.9089   -1.4202    0.1522 C   0  0  0  0  0  0  0  0  0  0  0  0
    0.8961    0.6063   -1.2899 C   0  0  0  0  0  0  0  0  0  0  0  0
    0.5645    1.8675    1.0913 H   0  0  0  0  0  0  0  0  0  0  0  0
    2.0090    0.8337    1.1984 H   0  0  0  0  0  0  0  0  0  0  0  0
    0.5665    0.4617    2.1383 H   0  0  0  0  0  0  0  0  0  0  0  0
    0.5574   -1.9128    1.0830 H   0  0  0  0  0  0  0  0  0  0  0  0
    1.9977   -1.4487    0.1550 H   0  0  0  0  0  0  0  0  0  0  0  0
    0.5753   -2.0625   -0.7003 H   0  0  0  0  0  0  0  0  0  0  0  0
    0.5621    0.0029   -2.1726 H   0  0  0  0  0  0  0  0  0  0  0  0
    2.0228    0.5999   -1.3391 H   0  0  0  0  0  0  0  0  0  0  0  0
    0.5668    1.6359   -1.4400 H   0  0  0  0  0  0  0  0  0  0  0  0
  1  4  1  0  0  0  0
  1  2  1  0  0  0  0
  2  7  1  0  0  0  0
  2  8  1  0  0  0  0
  4 10  1  0  0  0  0
  4  9  1  0  0  0  0
  5  1  1  0  0  0  0
  6  2  1  0  0  0  0
 11  4  1  0  0  0  0
 12  5  1  0  0  0  0
 13  5  1  0  0  0  0
 14  5  1  0  0  0  0
M  END
$$$$
