Compound 075 optimized with r2SCAN-3c
 OpenBabel12112416273D

 12 11  0  0  0  0  0  0  0  0999 V2000
   -0.4845    0.0465    0.0337 Mg  0  0  0  0  0  0  0  0  0  0  0  0
    1.6063   -0.0244    0.3459 C   0  0  0  0  0  0  0  0  0  0  0  0
   -2.6654    0.1098   -0.3281 Cl  0  0  0  0  0  0  0  0  0  0  0  0
    2.3190    1.2508   -0.1303 C   0  0  0  0  0  0  0  0  0  0  0  0
    2.2494   -1.2653   -0.2929 C   0  0  0  0  0  0  0  0  0  0  0  0
    1.7488   -0.0987    1.4350 H   0  0  0  0  0  0  0  0  0  0  0  0
    3.3324   -1.2986   -0.0932 H   0  0  0  0  0  0  0  0  0  0  0  0
    2.1344   -1.2693   -1.3845 H   0  0  0  0  0  0  0  0  0  0  0  0
    1.8251   -2.2034    0.0840 H   0  0  0  0  0  0  0  0  0  0  0  0
    2.2068    1.4028   -1.2116 H   0  0  0  0  0  0  0  0  0  0  0  0
    3.4017    1.1973    0.0665 H   0  0  0  0  0  0  0  0  0  0  0  0
    1.9470    2.1541    0.3672 H   0  0  0  0  0  0  0  0  0  0  0  0
  1  2  1  0  0  0  0
  2  6  1  0  0  0  0
  3  1  1  0  0  0  0
  4 11  1  0  0  0  0
  4  2  1  0  0  0  0
  4 12  1  0  0  0  0
  5  7  1  0  0  0  0
  5  9  1  0  0  0  0
  5  2  1  0  0  0  0
  8  5  1  0  0  0  0
 10  4  1  0  0  0  0
M  END
$$$$
