Compound 075, distorted structure 07
 OpenBabel12112412253D

 12  9  0  0  0  0  0  0  0  0999 V2000
   -0.5079   -0.0050    0.0804 *   0  0  0  0  0  0  0  0  0  0  0  0
    1.5260   -0.0082    0.3385 C   0  0  0  0  0  3  0  0  0  0  0  0
   -2.6186    0.0309   -0.4156 *   0  0  0  0  0  0  0  0  0  0  0  0
    2.2670    1.1720   -0.0654 C   0  0  0  0  0  0  0  0  0  0  0  0
    2.3195   -1.3261   -0.2876 C   0  0  0  0  0  0  0  0  0  0  0  0
    1.6904   -0.1631    1.4499 H   0  0  0  0  0  0  0  0  0  0  0  0
    3.2814   -1.2706   -0.1804 H   0  0  0  0  0  0  0  0  0  0  0  0
    2.1061   -1.1850   -1.3065 H   0  0  0  0  0  0  0  0  0  0  0  0
    1.8227   -2.1447    0.0289 H   0  0  0  0  0  0  0  0  0  0  0  0
    2.2312    1.4028   -1.2088 H   0  0  0  0  0  0  0  0  0  0  0  0
    3.4372    1.1526    0.0565 H   0  0  0  0  0  0  0  0  0  0  0  0
    1.9052    2.2205    0.2914 H   0  0  0  0  0  0  0  0  0  0  0  0
  2  6  1  0  0  0  0
  4 11  1  0  0  0  0
  4 12  1  0  0  0  0
  4  2  1  0  0  0  0
  5  7  1  0  0  0  0
  5  9  1  0  0  0  0
  5  2  1  0  0  0  0
  8  5  1  0  0  0  0
 10  4  1  0  0  0  0
M  END
$$$$
