Compound 075, distorted structure 05
 OpenBabel12112416273D

 12  9  0  0  0  0  0  0  0  0999 V2000
   -0.4797   -0.0180    0.0100 *   0  0  0  0  0  0  0  0  0  0  0  0
    1.6750   -0.0839    0.2816 C   0  0  0  0  0  3  0  0  0  0  0  0
   -2.6852    0.1751   -0.2704 *   0  0  0  0  0  0  0  0  0  0  0  0
    2.3499    1.2250   -0.1963 C   0  0  0  0  0  0  0  0  0  0  0  0
    2.3226   -1.3244   -0.2596 C   0  0  0  0  0  0  0  0  0  0  0  0
    1.7660   -0.0845    1.4819 H   0  0  0  0  0  0  0  0  0  0  0  0
    3.3263   -1.2400   -0.1695 H   0  0  0  0  0  0  0  0  0  0  0  0
    2.1982   -1.2282   -1.3815 H   0  0  0  0  0  0  0  0  0  0  0  0
    1.8109   -2.1891    0.1068 H   0  0  0  0  0  0  0  0  0  0  0  0
    2.2087    1.4294   -1.2824 H   0  0  0  0  0  0  0  0  0  0  0  0
    3.3963    1.1230    0.0137 H   0  0  0  0  0  0  0  0  0  0  0  0
    1.9693    2.2208    0.3605 H   0  0  0  0  0  0  0  0  0  0  0  0
  2  6  1  0  0  0  0
  4 11  1  0  0  0  0
  4  2  1  0  0  0  0
  4 12  1  0  0  0  0
  5  7  1  0  0  0  0
  5  9  1  0  0  0  0
  5  2  1  0  0  0  0
  8  5  1  0  0  0  0
 10  4  1  0  0  0  0
M  END
$$$$
