Compound 076, distorted structure 03
 OpenBabel12112412253D

 15 12  0  0  0  0  0  0  0  0999 V2000
    1.0271   -0.3953    0.4324 *   0  0  0  0  0  0  0  0  0  0  0  0
    2.9259    0.5247    0.4652 C   0  0  0  0  0  3  0  0  0  0  0  0
   -0.8559   -1.2099    0.3691 C   0  0  0  0  0  3  0  0  0  0  0  0
    3.4159    0.5972   -0.5892 H   0  0  0  0  0  0  0  0  0  0  0  0
    3.6297    0.0031    1.0523 H   0  0  0  0  0  0  0  0  0  0  0  0
    2.9309    1.5415    0.8132 H   0  0  0  0  0  0  0  0  0  0  0  0
   -1.9374   -0.2264   -0.1929 C   0  0  0  0  0  0  0  0  0  0  0  0
   -1.1844   -1.4669    1.3632 H   0  0  0  0  0  0  0  0  0  0  0  0
   -0.8712   -2.1458   -0.1872 H   0  0  0  0  0  0  0  0  0  0  0  0
   -1.8211   -0.0936   -1.2977 H   0  0  0  0  0  0  0  0  0  0  0  0
   -1.9120    1.0709    0.4993 C   0  0  0  0  0  0  0  0  0  0  0  0
   -2.9873   -0.7145   -0.0590 H   0  0  0  0  0  0  0  0  0  0  0  0
   -0.9376    1.6189    0.3581 H   0  0  0  0  0  0  0  0  0  0  0  0
   -2.0486    1.0279    1.5399 H   0  0  0  0  0  0  0  0  0  0  0  0
   -2.7539    1.7632    0.1417 H   0  0  0  0  0  0  0  0  0  0  0  0
  2  6  1  0  0  0  0
  2  5  1  0  0  0  0
  3  8  1  0  0  0  0
  4  2  1  0  0  0  0
  7 12  1  0  0  0  0
  7  3  1  0  0  0  0
  7 11  1  0  0  0  0
  9  3  1  0  0  0  0
 10  7  1  0  0  0  0
 11 14  1  0  0  0  0
 13 11  1  0  0  0  0
 15 11  1  0  0  0  0
M  END
$$$$
