Compound 078, distorted structure 07
 OpenBabel12112412253D

 17 13  0  0  0  0  0  0  0  0999 V2000
   -1.0158   -0.0019    0.0391 *   0  0  0  0  0  0  0  0  0  0  0  0
    0.8714    0.5684   -0.0968 C   0  0  0  0  0  2  0  0  0  0  0  0
   -2.4983    1.2595    0.1188 C   0  0  0  0  0  3  0  0  0  0  0  0
   -1.3264   -1.9572   -0.0401 C   0  0  0  0  0  3  0  0  0  0  0  0
   -2.2394   -2.1071   -0.7153 H   0  0  0  0  0  0  0  0  0  0  0  0
   -1.7100   -2.1280    1.0136 H   0  0  0  0  0  0  0  0  0  0  0  0
   -0.5588   -2.6257   -0.1842 H   0  0  0  0  0  0  0  0  0  0  0  0
   -2.4354    2.0099    0.8976 H   0  0  0  0  0  0  0  0  0  0  0  0
   -3.4673    0.8969    0.0597 H   0  0  0  0  0  0  0  0  0  0  0  0
   -2.4577    2.0846   -0.7773 H   0  0  0  0  0  0  0  0  0  0  0  0
    1.9897   -0.1391   -0.0359 C   0  0  0  0  0  3  0  0  0  0  0  0
    3.3032    0.2918    0.0643 C   0  0  0  0  0  0  0  0  0  0  0  0
    3.3426    1.2916   -0.0721 H   0  0  0  0  0  0  0  0  0  0  0  0
    3.9494   -0.1162   -0.8524 H   0  0  0  0  0  0  0  0  0  0  0  0
    3.8287   -0.1022    0.9842 H   0  0  0  0  0  0  0  0  0  0  0  0
    1.0346    1.6346   -0.0168 H   0  0  0  0  0  0  0  0  0  0  0  0
    1.7067   -1.2020   -0.0404 H   0  0  0  0  0  0  0  0  0  0  0  0
  2 11  1  0  0  0  0
  2 16  1  0  0  0  0
  3  8  1  0  0  0  0
  4  6  1  0  0  0  0
  5  4  1  0  0  0  0
  7  4  1  0  0  0  0
  9  3  1  0  0  0  0
 10  3  1  0  0  0  0
 11 12  1  0  0  0  0
 12 15  1  0  0  0  0
 13 12  1  0  0  0  0
 14 12  1  0  0  0  0
 17 11  1  0  0  0  0
M  END
$$$$
