Compound 078 optimized with r2SCAN-3c
 OpenBabel12112416273D

 17 16  0  0  0  0  0  0  0  0999 V2000
   -1.0197    0.0092   -0.0132 Al  0  0  0  0  0  0  0  0  0  0  0  0
    0.8171    0.6561   -0.0162 C   0  0  0  0  0  0  0  0  0  0  0  0
   -2.4939    1.3039    0.0061 C   0  0  0  0  0  0  0  0  0  0  0  0
   -1.3709   -1.9221   -0.0046 C   0  0  0  0  0  0  0  0  0  0  0  0
   -2.1235   -2.1921   -0.7563 H   0  0  0  0  0  0  0  0  0  0  0  0
   -1.7860   -2.2366    0.9625 H   0  0  0  0  0  0  0  0  0  0  0  0
   -0.4854   -2.5394   -0.1890 H   0  0  0  0  0  0  0  0  0  0  0  0
   -2.4545    1.9353    0.9037 H   0  0  0  0  0  0  0  0  0  0  0  0
   -3.4846    0.8374   -0.0204 H   0  0  0  0  0  0  0  0  0  0  0  0
   -2.4323    1.9925   -0.8468 H   0  0  0  0  0  0  0  0  0  0  0  0
    1.8761   -0.1711   -0.0028 C   0  0  0  0  0  3  0  0  0  0  0  0
    3.3172    0.2348    0.0058 C   0  0  0  0  0  0  0  0  0  0  0  0
    3.4281    1.3228   -0.0023 H   0  0  0  0  0  0  0  0  0  0  0  0
    3.8429   -0.1781   -0.8647 H   0  0  0  0  0  0  0  0  0  0  0  0
    3.8280   -0.1631    0.8921 H   0  0  0  0  0  0  0  0  0  0  0  0
    1.0560    1.7255   -0.0213 H   0  0  0  0  0  0  0  0  0  0  0  0
    1.7089   -1.2530    0.0034 H   0  0  0  0  0  0  0  0  0  0  0  0
  1  4  1  0  0  0  0
  1  3  1  0  0  0  0
  2  1  2  0  0  0  0
  2 11  1  0  0  0  0
  3  8  1  0  0  0  0
  4  6  1  0  0  0  0
  5  4  1  0  0  0  0
  7  4  1  0  0  0  0
  9  3  1  0  0  0  0
 10  3  1  0  0  0  0
 11 17  1  0  0  0  0
 11 12  1  0  0  0  0
 12 15  1  0  0  0  0
 13 12  1  0  0  0  0
 14 12  1  0  0  0  0
 16  2  1  0  0  0  0
M  END
$$$$
