Compound 079 optimized with r2SCAN-3c
 OpenBabel12112412253D

 14 13  0  0  0  0  0  0  0  0999 V2000
   -0.4491    0.0001   -0.0000 Si  0  0  0  0  0  0  0  0  0  0  0  0
    1.6525   -0.0004    0.0007 Cl  0  0  0  0  0  0  0  0  0  0  0  0
   -1.0045   -0.5638   -1.6932 C   0  0  0  0  0  0  0  0  0  0  0  0
   -1.0046    1.7484    0.3578 C   0  0  0  0  0  0  0  0  0  0  0  0
   -1.0056   -1.1840    1.3347 C   0  0  0  0  0  0  0  0  0  0  0  0
   -0.6357    2.4422   -0.4045 H   0  0  0  0  0  0  0  0  0  0  0  0
   -0.6350    2.0873    1.3309 H   0  0  0  0  0  0  0  0  0  0  0  0
   -2.0995    1.8075    0.3702 H   0  0  0  0  0  0  0  0  0  0  0  0
   -2.1005   -1.2248    1.3785 H   0  0  0  0  0  0  0  0  0  0  0  0
   -0.6378   -0.8706    2.3170 H   0  0  0  0  0  0  0  0  0  0  0  0
   -0.6355   -2.1961    1.1419 H   0  0  0  0  0  0  0  0  0  0  0  0
   -2.0994   -0.5827   -1.7505 H   0  0  0  0  0  0  0  0  0  0  0  0
   -0.6355   -1.5707   -1.9132 H   0  0  0  0  0  0  0  0  0  0  0  0
   -0.6351    0.1099   -2.4730 H   0  0  0  0  0  0  0  0  0  0  0  0
  1  2  1  0  0  0  0
  1  4  1  0  0  0  0
  1  5  1  0  0  0  0
  3  1  1  0  0  0  0
  4  8  1  0  0  0  0
  4  7  1  0  0  0  0
  5  9  1  0  0  0  0
  5 10  1  0  0  0  0
  6  4  1  0  0  0  0
 11  5  1  0  0  0  0
 12  3  1  0  0  0  0
 13  3  1  0  0  0  0
 14  3  1  0  0  0  0
M  END
$$$$
