Compound 080, distorted structure 05
 OpenBabel12112416273D

 15 11  0  0  0  0  0  0  0  0999 V2000
   -1.1679    0.7117    0.0562 C   0  0  0  0  0  2  0  0  0  0  0  0
    0.4843    0.0572   -0.0572 *   0  0  0  0  0  0  0  0  0  0  0  0
    2.0086    1.0760   -0.0202 C   0  0  0  0  0  3  0  0  0  0  0  0
    2.5210    0.9470    0.8294 H   0  0  0  0  0  0  0  0  0  0  0  0
    1.6479    2.1136    0.0496 H   0  0  0  0  0  0  0  0  0  0  0  0
    2.5344    0.9895   -0.8689 H   0  0  0  0  0  0  0  0  0  0  0  0
    0.7564   -1.7951   -0.0640 C   0  0  0  0  0  3  0  0  0  0  0  0
   -0.1636   -2.3971   -0.0351 H   0  0  0  0  0  0  0  0  0  0  0  0
    1.3823   -2.0907    0.8537 H   0  0  0  0  0  0  0  0  0  0  0  0
    1.3440   -2.1272   -0.8795 H   0  0  0  0  0  0  0  0  0  0  0  0
   -2.4231    0.0096   -0.0257 C   0  0  0  0  0  0  0  0  0  0  0  0
   -1.2606    1.7311   -0.0509 H   0  0  0  0  0  0  0  0  0  0  0  0
   -2.3353   -1.1297    0.0381 H   0  0  0  0  0  0  0  0  0  0  0  0
   -3.0785    0.1897   -0.9029 H   0  0  0  0  0  0  0  0  0  0  0  0
   -3.0354    0.2140    0.8928 H   0  0  0  0  0  0  0  0  0  0  0  0
  3  5  1  0  0  0  0
  3  4  1  0  0  0  0
  6  3  1  0  0  0  0
  7  8  1  0  0  0  0
  7  9  1  0  0  0  0
 10  7  1  0  0  0  0
 11 13  1  0  0  0  0
 11  1  1  0  0  0  0
 11 15  1  0  0  0  0
 12  1  1  0  0  0  0
 14 11  1  0  0  0  0
M  END
$$$$
