Compound 080 optimized with r2SCAN-3c
 OpenBabel12112412253D

 15 14  0  0  0  0  0  0  0  0999 V2000
   -1.1489    0.6984   -0.0034 C   0  0  0  0  0  0  0  0  0  0  0  0
    0.4307    0.0304   -0.0013 Si  0  0  0  0  0  0  0  0  0  0  0  0
    1.9562    1.1163    0.0021 C   0  0  0  0  0  0  0  0  0  0  0  0
    2.5780    0.9293    0.8842 H   0  0  0  0  0  0  0  0  0  0  0  0
    1.6653    2.1706    0.0060 H   0  0  0  0  0  0  0  0  0  0  0  0
    2.5774    0.9357   -0.8817 H   0  0  0  0  0  0  0  0  0  0  0  0
    0.7747   -1.8114   -0.0024 C   0  0  0  0  0  0  0  0  0  0  0  0
   -0.1595   -2.3798   -0.0056 H   0  0  0  0  0  0  0  0  0  0  0  0
    1.3504   -2.1069    0.8816 H   0  0  0  0  0  0  0  0  0  0  0  0
    1.3553   -2.1049   -0.8839 H   0  0  0  0  0  0  0  0  0  0  0  0
   -2.4665   -0.0241    0.0025 C   0  0  0  0  0  0  0  0  0  0  0  0
   -1.2147    1.7873   -0.0105 H   0  0  0  0  0  0  0  0  0  0  0  0
   -2.3447   -1.1120    0.0107 H   0  0  0  0  0  0  0  0  0  0  0  0
   -3.0683    0.2301   -0.8801 H   0  0  0  0  0  0  0  0  0  0  0  0
   -3.0676    0.2434    0.8817 H   0  0  0  0  0  0  0  0  0  0  0  0
  1  2  2  0  0  0  0
  1 11  1  0  0  0  0
  2  3  1  0  0  0  0
  3  5  1  0  0  0  0
  3  4  1  0  0  0  0
  6  3  1  0  0  0  0
  7  2  1  0  0  0  0
  7  9  1  0  0  0  0
  8  7  1  0  0  0  0
 10  7  1  0  0  0  0
 11 13  1  0  0  0  0
 11 15  1  0  0  0  0
 12  1  1  0  0  0  0
 14 11  1  0  0  0  0
M  END
$$$$
