Compound 081, distorted structure 04
 OpenBabel12112416273D

 18  9  0  0  0  0  0  0  0  0999 V2000
   -1.4413   -0.0407   -0.5882 *   0  0  0  0  0  0  0  0  0  0  0  0
   -0.3152    0.0621    0.5824 O   0  0  0  0  0 15  0  0  0  0  0  0
    1.3395    0.0807    0.6886 *   0  0  0  0  0  0  0  0  0  0  0  0
    2.0152    1.5083   -0.1704 C   0  0  0  0  0  3  0  0  0  0  0  0
    2.0073   -1.5797    0.0874 C   0  0  0  0  0  3  0  0  0  0  0  0
    1.5563    0.2361    2.1701 H   0  0  0  0  0 15  0  0  0  0  0  0
    3.1728    1.6425   -0.0920 H   0  0  0  0  0  0  0  0  0  0  0  0
    1.5754    2.5187    0.1283 H   0  0  0  0  0  0  0  0  0  0  0  0
    1.8091    1.4303   -1.3056 H   0  0  0  0  0  0  0  0  0  0  0  0
    1.6108   -2.3706    0.6361 H   0  0  0  0  0  0  0  0  0  0  0  0
    3.1287   -1.6073    0.1813 H   0  0  0  0  0  0  0  0  0  0  0  0
    1.8374   -1.6677   -1.0363 H   0  0  0  0  0  0  0  0  0  0  0  0
   -3.1588    0.1197    0.2245 C   0  0  0  0  0  3  0  0  0  0  0  0
   -1.3214   -1.4029   -1.2179 H   0  0  0  0  0 15  0  0  0  0  0  0
   -1.3227    0.9286   -1.6449 H   0  0  0  0  0 15  0  0  0  0  0  0
   -3.3083    1.0890    0.6326 H   0  0  0  0  0  0  0  0  0  0  0  0
   -3.3355   -0.6300    0.9630 H   0  0  0  0  0  0  0  0  0  0  0  0
   -4.0078   -0.0417   -0.5519 H   0  0  0  0  0  0  0  0  0  0  0  0
  4  7  1  0  0  0  0
  4  8  1  0  0  0  0
  5 11  1  0  0  0  0
  5 10  1  0  0  0  0
  9  4  1  0  0  0  0
 12  5  1  0  0  0  0
 13 16  1  0  0  0  0
 13 17  1  0  0  0  0
 18 13  1  0  0  0  0
M  END
$$$$
