Compound 081, distorted structure 01
 OpenBabel12112416273D

 18  9  0  0  0  0  0  0  0  0999 V2000
   -1.5009   -0.0975   -0.5994 *   0  0  0  0  0  0  0  0  0  0  0  0
   -0.3150    0.0607    0.5742 O   0  0  0  0  0 15  0  0  0  0  0  0
    1.3122    0.0643    0.6992 *   0  0  0  0  0  0  0  0  0  0  0  0
    2.0216    1.5353   -0.2031 C   0  0  0  0  0  3  0  0  0  0  0  0
    2.0132   -1.5300    0.0764 C   0  0  0  0  0  3  0  0  0  0  0  0
    1.5954    0.2178    2.1668 H   0  0  0  0  0 15  0  0  0  0  0  0
    3.1107    1.5827   -0.0670 H   0  0  0  0  0  0  0  0  0  0  0  0
    1.6018    2.4636    0.1276 H   0  0  0  0  0  0  0  0  0  0  0  0
    1.8378    1.4466   -1.2921 H   0  0  0  0  0  0  0  0  0  0  0  0
    1.5847   -2.3817    0.5830 H   0  0  0  0  0  0  0  0  0  0  0  0
    3.0941   -1.5743    0.2472 H   0  0  0  0  0  0  0  0  0  0  0  0
    1.8433   -1.6389   -1.0069 H   0  0  0  0  0  0  0  0  0  0  0  0
   -3.1560    0.0900    0.1960 C   0  0  0  0  0  3  0  0  0  0  0  0
   -1.3573   -1.4120   -1.2474 H   0  0  0  0  0 15  0  0  0  0  0  0
   -1.2924    0.9731   -1.6295 H   0  0  0  0  0 15  0  0  0  0  0  0
   -3.2689    1.0712    0.6824 H   0  0  0  0  0  0  0  0  0  0  0  0
   -3.3134   -0.6810    0.9699 H   0  0  0  0  0  0  0  0  0  0  0  0
   -3.9500    0.0086   -0.5459 H   0  0  0  0  0  0  0  0  0  0  0  0
  4  7  1  0  0  0  0
  4  8  1  0  0  0  0
  5 11  1  0  0  0  0
  5 10  1  0  0  0  0
  9  4  1  0  0  0  0
 12  5  1  0  0  0  0
 13 16  1  0  0  0  0
 13 17  1  0  0  0  0
 18 13  1  0  0  0  0
M  END
$$$$
