Compound 083, distorted structure 01
 OpenBabel12112412253D

 14 13  0  0  0  0  0  0  0  0999 V2000
    0.0017   -0.0141    1.6458 O   0  0  0  0  0  0  0  0  0  0  0  0
    0.0071    0.0061    0.1460 P   0  0  0  0  0  0  0  0  0  0  0  0
    0.4618    1.5977   -0.6163 C   0  0  0  0  0  0  0  0  0  0  0  0
   -1.6217   -0.4230   -0.5980 C   0  0  0  0  0  0  0  0  0  0  0  0
    1.1762   -1.1976   -0.5959 C   0  0  0  0  0  0  0  0  0  0  0  0
   -1.5662   -0.3848   -1.7028 H   0  0  0  0  0  0  0  0  0  0  0  0
   -2.3450    0.3126   -0.2739 H   0  0  0  0  0  0  0  0  0  0  0  0
   -1.9397   -1.3830   -0.2520 H   0  0  0  0  0  0  0  0  0  0  0  0
    0.9156   -2.2045   -0.2721 H   0  0  0  0  0  0  0  0  0  0  0  0
    2.1873   -0.9563   -0.2620 H   0  0  0  0  0  0  0  0  0  0  0  0
    1.1339   -1.1735   -1.7187 H   0  0  0  0  0  0  0  0  0  0  0  0
    1.4469    1.8686   -0.2694 H   0  0  0  0  0  0  0  0  0  0  0  0
   -0.2535    2.3655   -0.2547 H   0  0  0  0  0  0  0  0  0  0  0  0
    0.4653    1.5760   -1.6990 H   0  0  0  0  0  0  0  0  0  0  0  0
  2  1  2  0  0  0  0
  3 12  1  0  0  0  0
  3 13  1  0  0  0  0
  3  2  1  0  0  0  0
  4  7  1  0  0  0  0
  4  8  1  0  0  0  0
  4  2  1  0  0  0  0
  5  9  1  0  0  0  0
  5 10  1  0  0  0  0
  5  2  1  0  0  0  0
  6  4  1  0  0  0  0
 11  5  1  0  0  0  0
 14  3  1  0  0  0  0
M  END
$$$$
