Compound 085, distorted structure 02
 OpenBabel12112412253D

 16 15  0  0  0  0  0  0  0  0999 V2000
   -0.4215   -0.0462   -0.5268 P   0  0  0  0  0  0  0  0  0  0  0  0
    1.0529   -0.7006    0.3625 C   0  0  0  0  0  0  0  0  0  0  0  0
   -0.6160    1.6030    0.3729 C   0  0  0  0  0  0  0  0  0  0  0  0
   -1.7689   -0.9465    0.3294 C   0  0  0  0  0  0  0  0  0  0  0  0
   -1.7253   -2.0222    0.0294 H   0  0  0  0  0  0  0  0  0  0  0  0
   -2.7424   -0.5686    0.0483 H   0  0  0  0  0  0  0  0  0  0  0  0
   -1.6592   -0.8614    1.4096 H   0  0  0  0  0  0  0  0  0  0  0  0
   -1.6163    2.0873    0.0936 H   0  0  0  0  0  0  0  0  0  0  0  0
    0.1663    2.3037    0.0656 H   0  0  0  0  0  0  0  0  0  0  0  0
   -0.5638    1.4960    1.4675 H   0  0  0  0  0  0  0  0  0  0  0  0
    2.3394    0.0248    0.0220 C   0  0  0  0  0  0  0  0  0  0  0  0
    1.1143   -1.7619    0.1453 H   0  0  0  0  0  0  0  0  0  0  0  0
    0.8376   -0.6499    1.4535 H   0  0  0  0  0  0  0  0  0  0  0  0
    3.1646   -0.4901    0.4799 H   0  0  0  0  0  0  0  0  0  0  0  0
    2.3287    1.0866    0.2442 H   0  0  0  0  0  0  0  0  0  0  0  0
    2.5162   -0.0296   -1.0655 H   0  0  0  0  0  0  0  0  0  0  0  0
  1  4  1  0  0  0  0
  1  2  1  0  0  0  0
  1  3  1  0  0  0  0
  2 13  1  0  0  0  0
  3 10  1  0  0  0  0
  4  7  1  0  0  0  0
  5  4  1  0  0  0  0
  6  4  1  0  0  0  0
  8  3  1  0  0  0  0
  9  3  1  0  0  0  0
 11 15  1  0  0  0  0
 11  2  1  0  0  0  0
 11 14  1  0  0  0  0
 12  2  1  0  0  0  0
 16 11  1  0  0  0  0
M  END
$$$$
