Compound 085, distorted structure 05
 OpenBabel12112416273D

 16 15  0  0  0  0  0  0  0  0999 V2000
   -0.4528    0.0320   -0.5563 P   0  0  0  0  0  0  0  0  0  0  0  0
    1.0286   -0.7021    0.3224 C   0  0  0  0  0  0  0  0  0  0  0  0
   -0.6939    1.6717    0.3867 C   0  0  0  0  0  0  0  0  0  0  0  0
   -1.7331   -1.0143    0.3398 C   0  0  0  0  0  0  0  0  0  0  0  0
   -1.6979   -2.0433    0.0449 H   0  0  0  0  0  0  0  0  0  0  0  0
   -2.7189   -0.5976    0.0575 H   0  0  0  0  0  0  0  0  0  0  0  0
   -1.7237   -0.9376    1.4187 H   0  0  0  0  0  0  0  0  0  0  0  0
   -1.6074    2.0689    0.0891 H   0  0  0  0  0  0  0  0  0  0  0  0
    0.1175    2.2508    0.1076 H   0  0  0  0  0  0  0  0  0  0  0  0
   -0.5839    1.5419    1.3803 H   0  0  0  0  0  0  0  0  0  0  0  0
    2.4059   -0.0741   -0.0622 C   0  0  0  0  0  0  0  0  0  0  0  0
    1.0959   -1.8223    0.1611 H   0  0  0  0  0  0  0  0  0  0  0  0
    0.8595   -0.6296    1.3898 H   0  0  0  0  0  0  0  0  0  0  0  0
    3.2254   -0.5254    0.5647 H   0  0  0  0  0  0  0  0  0  0  0  0
    2.3968    1.1054    0.2795 H   0  0  0  0  0  0  0  0  0  0  0  0
    2.5050   -0.1203   -1.1132 H   0  0  0  0  0  0  0  0  0  0  0  0
  1  2  1  0  0  0  0
  1  4  1  0  0  0  0
  1  3  1  0  0  0  0
  2 13  1  0  0  0  0
  3 10  1  0  0  0  0
  4  7  1  0  0  0  0
  5  4  1  0  0  0  0
  6  4  1  0  0  0  0
  8  3  1  0  0  0  0
  9  3  1  0  0  0  0
 11 15  1  0  0  0  0
 11  2  1  0  0  0  0
 11 14  1  0  0  0  0
 12  2  1  0  0  0  0
 16 11  1  0  0  0  0
M  END
$$$$
