Compound 086, distorted structure 01
 OpenBabel12112416273D

  9  9  0  0  0  0  0  0  0  0999 V2000
    0.0255   -1.2594   -0.0247 C   0  0  0  0  0  0  0  0  0  0  0  0
    1.3100   -0.6875    0.0143 C   0  0  0  0  0  0  0  0  0  0  0  0
    1.3254    0.7056    0.0257 C   0  0  0  0  0  0  0  0  0  0  0  0
    0.0436    1.2312   -0.0192 C   0  0  0  0  0  0  0  0  0  0  0  0
   -1.1542   -0.0156   -0.0242 S   0  0  0  0  0  0  0  0  0  0  0  0
   -0.2444   -2.2927   -0.0081 H   0  0  0  0  0  0  0  0  0  0  0  0
    2.1968   -1.3209    0.0097 H   0  0  0  0  0  0  0  0  0  0  0  0
    2.2011    1.3194   -0.0107 H   0  0  0  0  0  0  0  0  0  0  0  0
   -0.2569    2.2682    0.0193 H   0  0  0  0  0  0  0  0  0  0  0  0
  1  5  1  0  0  0  0
  1  6  1  0  0  0  0
  1  2  2  0  0  0  0
  2  3  1  0  0  0  0
  4  9  1  0  0  0  0
  4  3  2  0  0  0  0
  5  4  1  0  0  0  0
  7  2  1  0  0  0  0
  8  3  1  0  0  0  0
M  END
$$$$
