Compound 087, distorted structure 04
 OpenBabel12112412253D

 11 11  0  0  0  0  0  0  0  0999 V2000
    1.5919   -0.5672   -0.0187 C   0  0  0  0  0  0  0  0  0  0  0  0
    0.4953   -1.5991   -0.2140 C   0  0  0  0  0  0  0  0  0  0  0  0
   -0.8159   -1.2733    0.3599 C   0  0  0  0  0  0  0  0  0  0  0  0
    0.8308   -2.5955    0.2370 H   0  0  0  0  0  0  0  0  0  0  0  0
    0.3093   -1.7718   -1.2994 H   0  0  0  0  0  0  0  0  0  0  0  0
   -1.1592    0.4218   -0.2204 S   0  0  0  0  0  0  0  0  0  0  0  0
   -0.8624   -1.1656    1.4464 H   0  0  0  0  0  0  0  0  0  0  0  0
   -1.7287   -1.8550    0.1037 H   0  0  0  0  0  0  0  0  0  0  0  0
    0.6509    1.1280    0.3797 S   0  0  0  0  0  0  0  0  0  0  0  0
    2.1909   -0.3614   -0.9590 H   0  0  0  0  0  0  0  0  0  0  0  0
    2.1573   -0.7077    0.8252 H   0  0  0  0  0  0  0  0  0  0  0  0
  1  9  1  0  0  0  0
  1 11  1  0  0  0  0
  2  1  1  0  0  0  0
  2  4  1  0  0  0  0
  2  3  1  0  0  0  0
  3  7  1  0  0  0  0
  5  2  1  0  0  0  0
  6  3  1  0  0  0  0
  6  9  1  0  0  0  0
  8  3  1  0  0  0  0
 10  1  1  0  0  0  0
M  END
$$$$
