Compound 088, distorted structure 03
 OpenBabel12112416273D

 12 11  0  0  0  0  0  0  0  0999 V2000
    2.5370    0.0645    0.0232 C   0  0  0  0  0  0  0  0  0  0  0  0
    1.0602   -0.5684    0.0587 C   0  0  0  0  0  0  0  0  0  0  0  0
    2.7244    0.6093   -0.9654 H   0  0  0  0  0  0  0  0  0  0  0  0
    3.2915   -0.7435    0.1094 H   0  0  0  0  0  0  0  0  0  0  0  0
    2.6556    0.7244    0.8367 H   0  0  0  0  0  0  0  0  0  0  0  0
   -0.0024    0.5193   -0.0208 C   0  0  0  0  0  0  0  0  0  0  0  0
    0.9230   -1.1211    0.9564 H   0  0  0  0  0  0  0  0  0  0  0  0
    1.0120   -1.2454   -0.7860 H   0  0  0  0  0  0  0  0  0  0  0  0
    0.1304    1.2827    0.7507 H   0  0  0  0  0  0  0  0  0  0  0  0
   -1.6877   -0.0415    0.0346 S   0  0  0  0  0  0  0  0  0  0  0  0
    0.1465    1.1784   -0.9845 H   0  0  0  0  0  0  0  0  0  0  0  0
   -1.7019   -0.7815   -1.0228 H   0  0  0  0  0  0  0  0  0  0  0  0
  1  2  1  0  0  0  0
  1  4  1  0  0  0  0
  1  5  1  0  0  0  0
  2  7  1  0  0  0  0
  3  1  1  0  0  0  0
  6 10  1  0  0  0  0
  6  2  1  0  0  0  0
  6  9  1  0  0  0  0
  8  2  1  0  0  0  0
 11  6  1  0  0  0  0
 12 10  1  0  0  0  0
M  END
$$$$
