Compound 089, distorted structure 08
 OpenBabel12112412253D

 12 11  0  0  0  0  0  0  0  0999 V2000
   -1.3080    1.2881    0.1026 C   0  0  0  0  0  0  0  0  0  0  0  0
   -0.5882    0.1458   -0.5390 C   0  0  0  0  0  0  0  0  0  0  0  0
   -2.3431    1.3546    0.0986 H   0  0  0  0  0  0  0  0  0  0  0  0
   -0.8368    2.1698   -0.2368 H   0  0  0  0  0  0  0  0  0  0  0  0
   -1.1397    1.2924    1.2072 H   0  0  0  0  0  0  0  0  0  0  0  0
   -1.0328   -1.1333    0.0158 C   0  0  0  0  0  0  0  0  0  0  0  0
    1.3624    0.3768   -0.2093 S   0  0  0  0  0  0  0  0  0  0  0  0
   -0.6092    0.0836   -1.4584 H   0  0  0  0  0  0  0  0  0  0  0  0
   -2.1984   -1.3698   -0.1062 H   0  0  0  0  0  0  0  0  0  0  0  0
   -0.8202   -1.3695    1.1103 H   0  0  0  0  0  0  0  0  0  0  0  0
   -0.5481   -2.1726   -0.5001 H   0  0  0  0  0  0  0  0  0  0  0  0
    1.7110   -0.8218   -0.8403 H   0  0  0  0  0  0  0  0  0  0  0  0
  1  5  1  0  0  0  0
  2  7  1  0  0  0  0
  2  6  1  0  0  0  0
  2  1  1  0  0  0  0
  3  1  1  0  0  0  0
  4  1  1  0  0  0  0
  6 10  1  0  0  0  0
  8  2  1  0  0  0  0
  9  6  1  0  0  0  0
 11  6  1  0  0  0  0
 12  7  1  0  0  0  0
M  END
$$$$
