Compound 089, distorted structure 01
 OpenBabel12112416273D

 12 11  0  0  0  0  0  0  0  0999 V2000
   -1.2189    1.2930    0.2171 C   0  0  0  0  0  0  0  0  0  0  0  0
   -0.5511    0.0988   -0.4505 C   0  0  0  0  0  0  0  0  0  0  0  0
   -2.3133    1.2396   -0.0070 H   0  0  0  0  0  0  0  0  0  0  0  0
   -0.8497    2.2616   -0.1922 H   0  0  0  0  0  0  0  0  0  0  0  0
   -1.0851    1.3011    1.2848 H   0  0  0  0  0  0  0  0  0  0  0  0
   -1.0732   -1.2291    0.0978 C   0  0  0  0  0  0  0  0  0  0  0  0
    1.3025    0.3153   -0.1248 S   0  0  0  0  0  0  0  0  0  0  0  0
   -0.6683    0.1742   -1.5259 H   0  0  0  0  0  0  0  0  0  0  0  0
   -2.1278   -1.3109   -0.1066 H   0  0  0  0  0  0  0  0  0  0  0  0
   -0.8909   -1.2877    1.1588 H   0  0  0  0  0  0  0  0  0  0  0  0
   -0.5530   -2.0807   -0.3905 H   0  0  0  0  0  0  0  0  0  0  0  0
    1.7019   -0.8106   -0.7875 H   0  0  0  0  0  0  0  0  0  0  0  0
  1  5  1  0  0  0  0
  2  7  1  0  0  0  0
  2  6  1  0  0  0  0
  2  1  1  0  0  0  0
  3  1  1  0  0  0  0
  4  1  1  0  0  0  0
  6 10  1  0  0  0  0
  8  2  1  0  0  0  0
  9  6  1  0  0  0  0
 11  6  1  0  0  0  0
 12  7  1  0  0  0  0
M  END
$$$$
