Compound 090, distorted structure 07
 OpenBabel12112416273D

 12 11  0  0  0  0  0  0  0  0999 V2000
   -1.9362   -1.1673   -0.1470 C   0  0  0  0  0  0  0  0  0  0  0  0
   -1.2756    0.5407    0.2271 S   0  0  0  0  0  0  0  0  0  0  0  0
   -1.8420   -1.4651   -1.2195 H   0  0  0  0  0  0  0  0  0  0  0  0
   -2.8510   -1.2290    0.0957 H   0  0  0  0  0  0  0  0  0  0  0  0
   -1.2916   -1.9355    0.4956 H   0  0  0  0  0  0  0  0  0  0  0  0
    0.3591    0.4791   -0.4793 C   0  0  0  0  0  0  0  0  0  0  0  0
    1.4023   -0.1494    0.3759 C   0  0  0  0  0  0  0  0  0  0  0  0
    0.6122    1.5121   -0.6542 H   0  0  0  0  0  0  0  0  0  0  0  0
    0.3584   -0.0713   -1.3830 H   0  0  0  0  0  0  0  0  0  0  0  0
    2.5657   -0.2457   -0.1918 F   0  0  0  0  0  0  0  0  0  0  0  0
    0.9709   -1.1297    0.7798 H   0  0  0  0  0  0  0  0  0  0  0  0
    1.4833    0.4741    1.4577 H   0  0  0  0  0  0  0  0  0  0  0  0
  1  4  1  0  0  0  0
  1  2  1  0  0  0  0
  1  5  1  0  0  0  0
  3  1  1  0  0  0  0
  6  2  1  0  0  0  0
  6  7  1  0  0  0  0
  7 11  1  0  0  0  0
  7 12  1  0  0  0  0
  8  6  1  0  0  0  0
  9  6  1  0  0  0  0
 10  7  1  0  0  0  0
M  END
$$$$
