Compound 090, distorted structure 04
 OpenBabel12112416273D

 12 11  0  0  0  0  0  0  0  0999 V2000
   -1.9474   -1.1259   -0.1951 C   0  0  0  0  0  0  0  0  0  0  0  0
   -1.3198    0.5661    0.1863 S   0  0  0  0  0  0  0  0  0  0  0  0
   -1.7627   -1.3658   -1.2373 H   0  0  0  0  0  0  0  0  0  0  0  0
   -2.9027   -1.2694    0.1120 H   0  0  0  0  0  0  0  0  0  0  0  0
   -1.2832   -1.9322    0.3739 H   0  0  0  0  0  0  0  0  0  0  0  0
    0.3703    0.5295   -0.4922 C   0  0  0  0  0  0  0  0  0  0  0  0
    1.3338   -0.1803    0.5035 C   0  0  0  0  0  0  0  0  0  0  0  0
    0.6700    1.5733   -0.7018 H   0  0  0  0  0  0  0  0  0  0  0  0
    0.3416   -0.0291   -1.5224 H   0  0  0  0  0  0  0  0  0  0  0  0
    2.5473   -0.1807   -0.0981 F   0  0  0  0  0  0  0  0  0  0  0  0
    1.0286   -1.2675    0.6771 H   0  0  0  0  0  0  0  0  0  0  0  0
    1.3371    0.3488    1.4377 H   0  0  0  0  0  0  0  0  0  0  0  0
  1  4  1  0  0  0  0
  1  2  1  0  0  0  0
  1  5  1  0  0  0  0
  3  1  1  0  0  0  0
  6  2  1  0  0  0  0
  6  7  1  0  0  0  0
  7 11  1  0  0  0  0
  7 12  1  0  0  0  0
  8  6  1  0  0  0  0
  9  6  1  0  0  0  0
 10  7  1  0  0  0  0
M  END
$$$$
