Compound 090, distorted structure 01
 OpenBabel12112412253D

 12 11  0  0  0  0  0  0  0  0999 V2000
   -1.9174   -1.1667   -0.1576 C   0  0  0  0  0  0  0  0  0  0  0  0
   -1.3588    0.5604    0.1744 S   0  0  0  0  0  0  0  0  0  0  0  0
   -1.8278   -1.3784   -1.2287 H   0  0  0  0  0  0  0  0  0  0  0  0
   -2.9430   -1.2154    0.1469 H   0  0  0  0  0  0  0  0  0  0  0  0
   -1.3104   -1.9030    0.4225 H   0  0  0  0  0  0  0  0  0  0  0  0
    0.3608    0.4959   -0.5089 C   0  0  0  0  0  0  0  0  0  0  0  0
    1.3151   -0.1918    0.4482 C   0  0  0  0  0  0  0  0  0  0  0  0
    0.6433    1.5406   -0.6690 H   0  0  0  0  0  0  0  0  0  0  0  0
    0.3252   -0.0162   -1.4584 H   0  0  0  0  0  0  0  0  0  0  0  0
    2.5779   -0.2333   -0.1165 F   0  0  0  0  0  0  0  0  0  0  0  0
    1.0055   -1.2181    0.6867 H   0  0  0  0  0  0  0  0  0  0  0  0
    1.3762    0.3924    1.4121 H   0  0  0  0  0  0  0  0  0  0  0  0
  1  4  1  0  0  0  0
  1  2  1  0  0  0  0
  1  5  1  0  0  0  0
  3  1  1  0  0  0  0
  6  2  1  0  0  0  0
  6  7  1  0  0  0  0
  7 11  1  0  0  0  0
  7 12  1  0  0  0  0
  8  6  1  0  0  0  0
  9  6  1  0  0  0  0
 10  7  1  0  0  0  0
M  END
$$$$
