Compound 091, distorted structure 07
 OpenBabel12112416273D

 13 13  0  0  0  0  0  0  0  0999 V2000
    0.2794   -1.1674    0.0589 C   0  0  0  0  0  0  0  0  0  0  0  0
    1.6616   -1.2276    0.0500 C   0  0  0  0  0  0  0  0  0  0  0  0
    2.2727    0.0614   -0.0033 C   0  0  0  0  0  0  0  0  0  0  0  0
    1.5694    1.2731    0.0035 C   0  0  0  0  0  0  0  0  0  0  0  0
    0.2280    1.2011   -0.0705 C   0  0  0  0  0  0  0  0  0  0  0  0
   -0.4913   -0.0910   -0.0460 C   0  0  0  0  0  0  0  0  0  0  0  0
   -2.3043    0.0016   -0.0469 S   0  0  0  0  0  0  0  0  0  0  0  0
   -0.2565   -2.1028   -0.0034 H   0  0  0  0  0  0  0  0  0  0  0  0
    2.1172   -2.1073    0.0587 H   0  0  0  0  0  0  0  0  0  0  0  0
    3.4865   -0.0192   -0.0167 H   0  0  0  0  0  0  0  0  0  0  0  0
    2.0814    2.1899   -0.0641 H   0  0  0  0  0  0  0  0  0  0  0  0
   -0.3548    2.1458   -0.0440 H   0  0  0  0  0  0  0  0  0  0  0  0
   -2.4779   -1.2400   -0.0302 H   0  0  0  0  0  0  0  0  0  0  0  0
  2  9  1  0  0  0  0
  2  1  1  0  0  0  0
  3  4  1  0  0  0  0
  3  2  2  0  0  0  0
  5  6  1  0  0  0  0
  5 12  1  0  0  0  0
  5  4  2  0  0  0  0
  6  1  2  0  0  0  0
  7  6  1  0  0  0  0
  7 13  1  0  0  0  0
  8  1  1  0  0  0  0
 10  3  1  0  0  0  0
 11  4  1  0  0  0  0
M  END
$$$$
