Compound 092 optimized with r2SCAN-3c
 OpenBabel12112416273D

 14 14  0  0  0  0  0  0  0  0999 V2000
   -1.0286    1.1891    0.2578 C   0  0  0  0  0  0  0  0  0  0  0  0
    0.3490    1.3643   -0.3601 C   0  0  0  0  0  0  0  0  0  0  0  0
    1.4790    0.0000    0.1292 S   0  0  0  0  0  0  0  0  0  0  0  0
    0.8090    2.2944   -0.0090 H   0  0  0  0  0  0  0  0  0  0  0  0
    0.2740    1.4025   -1.4535 H   0  0  0  0  0  0  0  0  0  0  0  0
    0.3491   -1.3643   -0.3602 C   0  0  0  0  0  0  0  0  0  0  0  0
   -1.0283   -1.1893    0.2580 C   0  0  0  0  0  0  0  0  0  0  0  0
    0.8093   -2.2944   -0.0095 H   0  0  0  0  0  0  0  0  0  0  0  0
    0.2738   -1.4022   -1.4536 H   0  0  0  0  0  0  0  0  0  0  0  0
   -1.6775   -0.0002   -0.1847 O   0  0  0  0  0  0  0  0  0  0  0  0
   -0.9506   -1.1938    1.3581 H   0  0  0  0  0  0  0  0  0  0  0  0
   -1.6836   -2.0121   -0.0530 H   0  0  0  0  0  0  0  0  0  0  0  0
   -1.6840    2.0117   -0.0537 H   0  0  0  0  0  0  0  0  0  0  0  0
   -0.9513    1.1940    1.3579 H   0  0  0  0  0  0  0  0  0  0  0  0
  1 14  1  0  0  0  0
  2  4  1  0  0  0  0
  2  3  1  0  0  0  0
  2  1  1  0  0  0  0
  5  2  1  0  0  0  0
  6  8  1  0  0  0  0
  6  3  1  0  0  0  0
  6  7  1  0  0  0  0
  7 11  1  0  0  0  0
  9  6  1  0  0  0  0
 10  1  1  0  0  0  0
 10  7  1  0  0  0  0
 12  7  1  0  0  0  0
 13  1  1  0  0  0  0
M  END
$$$$
