Compound 092, distorted structure 06
 OpenBabel12112416273D

 14 14  0  0  0  0  0  0  0  0999 V2000
   -0.9771    1.2188    0.2066 C   0  0  0  0  0  0  0  0  0  0  0  0
    0.3743    1.3664   -0.3132 C   0  0  0  0  0  0  0  0  0  0  0  0
    1.4350    0.0286    0.0871 S   0  0  0  0  0  0  0  0  0  0  0  0
    0.8489    2.2591   -0.0144 H   0  0  0  0  0  0  0  0  0  0  0  0
    0.3057    1.3616   -1.4543 H   0  0  0  0  0  0  0  0  0  0  0  0
    0.3914   -1.4040   -0.3069 C   0  0  0  0  0  0  0  0  0  0  0  0
   -1.0348   -1.2181    0.3058 C   0  0  0  0  0  0  0  0  0  0  0  0
    0.7966   -2.2699   -0.0495 H   0  0  0  0  0  0  0  0  0  0  0  0
    0.2398   -1.3636   -1.4542 H   0  0  0  0  0  0  0  0  0  0  0  0
   -1.6721   -0.0236   -0.2281 O   0  0  0  0  0  0  0  0  0  0  0  0
   -0.9943   -1.1767    1.3398 H   0  0  0  0  0  0  0  0  0  0  0  0
   -1.6759   -2.0574   -0.0386 H   0  0  0  0  0  0  0  0  0  0  0  0
   -1.6608    2.0271   -0.0671 H   0  0  0  0  0  0  0  0  0  0  0  0
   -0.9041    1.1533    1.4045 H   0  0  0  0  0  0  0  0  0  0  0  0
  1 14  1  0  0  0  0
  2  4  1  0  0  0  0
  2  3  1  0  0  0  0
  2  1  1  0  0  0  0
  5  2  1  0  0  0  0
  6  8  1  0  0  0  0
  6  3  1  0  0  0  0
  6  7  1  0  0  0  0
  7 11  1  0  0  0  0
  9  6  1  0  0  0  0
 10  1  1  0  0  0  0
 10  7  1  0  0  0  0
 12  7  1  0  0  0  0
 13  1  1  0  0  0  0
M  END
$$$$
