Compound 093, distorted structure 06
 OpenBabel12112416273D

 15 15  0  0  0  0  0  0  0  0999 V2000
    0.1437    1.0503   -0.6868 C   0  0  0  0  0  0  0  0  0  0  0  0
    1.1228    0.0969   -0.4375 N   0  0  0  0  0  0  0  0  0  0  0  0
    0.5635   -1.1685   -0.5011 C   0  0  0  0  0  0  0  0  0  0  0  0
   -0.6759   -1.2477    0.3397 C   0  0  0  0  0  0  0  0  0  0  0  0
    1.3950   -1.9664   -0.2608 H   0  0  0  0  0  0  0  0  0  0  0  0
    0.4126   -1.3913   -1.5488 H   0  0  0  0  0  0  0  0  0  0  0  0
   -1.3609    0.3481    0.2266 S   0  0  0  0  0  0  0  0  0  0  0  0
   -0.3943   -1.5143    1.3033 H   0  0  0  0  0  0  0  0  0  0  0  0
   -1.4170   -2.1038   -0.0443 H   0  0  0  0  0  0  0  0  0  0  0  0
   -0.1956    0.9892   -1.7817 H   0  0  0  0  0  0  0  0  0  0  0  0
    0.3959    2.1402   -0.4519 H   0  0  0  0  0  0  0  0  0  0  0  0
    1.8459    0.4362    0.8557 C   0  0  0  0  0  0  0  0  0  0  0  0
    2.3278    1.4362    0.8292 H   0  0  0  0  0  0  0  0  0  0  0  0
    2.6480   -0.3623    0.9489 H   0  0  0  0  0  0  0  0  0  0  0  0
    1.1183    0.3828    1.6587 H   0  0  0  0  0  0  0  0  0  0  0  0
  1 11  1  0  0  0  0
  1  2  1  0  0  0  0
  1  7  1  0  0  0  0
  2 12  1  0  0  0  0
  3  2  1  0  0  0  0
  3  5  1  0  0  0  0
  3  4  1  0  0  0  0
  4  8  1  0  0  0  0
  6  3  1  0  0  0  0
  7  4  1  0  0  0  0
  9  4  1  0  0  0  0
 10  1  1  0  0  0  0
 12 14  1  0  0  0  0
 12 15  1  0  0  0  0
 13 12  1  0  0  0  0
M  END
$$$$
