Compound 093, distorted structure 05
 OpenBabel12112416273D

 15 15  0  0  0  0  0  0  0  0999 V2000
    0.1461    1.0818   -0.7418 C   0  0  0  0  0  0  0  0  0  0  0  0
    1.1863    0.2045   -0.5134 N   0  0  0  0  0  0  0  0  0  0  0  0
    0.6220   -1.2471   -0.6077 C   0  0  0  0  0  0  0  0  0  0  0  0
   -0.7013   -1.2723    0.2737 C   0  0  0  0  0  0  0  0  0  0  0  0
    1.3646   -1.9497   -0.2954 H   0  0  0  0  0  0  0  0  0  0  0  0
    0.3255   -1.3480   -1.5755 H   0  0  0  0  0  0  0  0  0  0  0  0
   -1.4983    0.3489    0.1270 S   0  0  0  0  0  0  0  0  0  0  0  0
   -0.4571   -1.4700    1.4041 H   0  0  0  0  0  0  0  0  0  0  0  0
   -1.2914   -2.0814   -0.1137 H   0  0  0  0  0  0  0  0  0  0  0  0
   -0.0700    1.0857   -1.8056 H   0  0  0  0  0  0  0  0  0  0  0  0
    0.3027    1.9986   -0.3638 H   0  0  0  0  0  0  0  0  0  0  0  0
    1.8362    0.4697    0.8328 C   0  0  0  0  0  0  0  0  0  0  0  0
    2.2580    1.4191    0.8594 H   0  0  0  0  0  0  0  0  0  0  0  0
    2.5672   -0.2942    1.0684 H   0  0  0  0  0  0  0  0  0  0  0  0
    1.1296    0.3282    1.6381 H   0  0  0  0  0  0  0  0  0  0  0  0
  1  2  1  0  0  0  0
  1 11  1  0  0  0  0
  1  7  1  0  0  0  0
  2 12  1  0  0  0  0
  3  2  1  0  0  0  0
  3  5  1  0  0  0  0
  3  4  1  0  0  0  0
  4  8  1  0  0  0  0
  6  3  1  0  0  0  0
  7  4  1  0  0  0  0
  9  4  1  0  0  0  0
 10  1  1  0  0  0  0
 12 13  1  0  0  0  0
 12 14  1  0  0  0  0
 12 15  1  0  0  0  0
M  END
$$$$
