Compound 098, distorted structure 09
 OpenBabel12112416273D

  9  7  0  0  0  0  0  0  0  0999 V2000
    2.6584   -0.0585   -0.0054 C   0  0  0  0  0  0  0  0  0  0  0  0
    1.2572    0.3629   -0.0740 C   0  0  0  0  0  3  0  0  0  0  0  0
    3.0952    0.3113   -0.9689 H   0  0  0  0  0  0  0  0  0  0  0  0
    2.5256   -0.9835    0.0051 H   0  0  0  0  0  0  0  0  0  0  0  0
    2.8823    0.4503    0.8393 H   0  0  0  0  0  0  0  0  0  0  0  0
    0.1637   -0.3700   -0.1320 C   0  0  0  0  0  2  0  0  0  0  0  0
   -1.5002   -0.0287    0.1621 *   0  0  0  0  0  0  0  0  0  0  0  0
    0.8581    1.4038   -0.1170 H   0  0  0  0  0  0  0  0  0  0  0  0
    0.1111   -1.3574    0.1672 H   0  0  0  0  0  0  0  0  0  0  0  0
  1  4  1  0  0  0  0
  1  5  1  0  0  0  0
  2  1  1  0  0  0  0
  3  1  1  0  0  0  0
  6  2  1  0  0  0  0
  6  9  1  0  0  0  0
  8  2  1  0  0  0  0
M  END
$$$$
