Compound 100, distorted structure 06
 OpenBabel12112412253D

 11  9  0  0  0  0  0  0  0  0999 V2000
   -0.5553    1.9138   -0.2236 C   0  0  0  0  0  0  0  0  0  0  0  0
   -0.5500    0.5248    0.2477 C   0  0  0  0  0  0  0  0  0  0  0  0
   -1.5579    2.1680   -0.7207 H   0  0  0  0  0  0  0  0  0  0  0  0
    0.1690    1.9955   -0.9823 H   0  0  0  0  0  0  0  0  0  0  0  0
   -0.3924    2.5523    0.4979 H   0  0  0  0  0  0  0  0  0  0  0  0
    0.5969   -0.0996    0.8888 C   0  0  0  0  0  3  0  0  0  0  0  0
    0.4638   -1.0527    1.3823 H   0  0  0  0  0  0  0  0  0  0  0  0
    0.9289    0.6246    1.6596 H   0  0  0  0  0  0  0  0  0  0  0  0
    2.0854   -0.2923   -0.2646 *   0  0  0  0  0  0  0  0  0  0  0  0
   -1.5536   -0.3611    0.0799 C   0  0  0  0  0  0  0  0  0  0  0  0
   -2.5480   -1.0601   -0.2387 O   0  0  0  0  0  0  0  0  0  0  0  0
  1  2  1  0  0  0  0
  1  5  1  0  0  0  0
  2  6  1  0  0  0  0
  3  1  1  0  0  0  0
  4  1  1  0  0  0  0
  6  7  1  0  0  0  0
  6  8  1  0  0  0  0
 10  2  2  0  0  0  0
 11 10  2  0  0  0  0
M  END
$$$$
