Compound 100, distorted structure 03
 OpenBabel12112412253D

 11  9  0  0  0  0  0  0  0  0999 V2000
   -0.5808    1.9043   -0.3120 C   0  0  0  0  0  0  0  0  0  0  0  0
   -0.5956    0.4321    0.2122 C   0  0  0  0  0  0  0  0  0  0  0  0
   -1.5392    2.1962   -0.7671 H   0  0  0  0  0  0  0  0  0  0  0  0
    0.1764    2.0317   -0.9638 H   0  0  0  0  0  0  0  0  0  0  0  0
   -0.4470    2.5633    0.5860 H   0  0  0  0  0  0  0  0  0  0  0  0
    0.6235   -0.0241    0.9208 C   0  0  0  0  0  3  0  0  0  0  0  0
    0.4142   -1.0440    1.3984 H   0  0  0  0  0  0  0  0  0  0  0  0
    0.9895    0.6773    1.6370 H   0  0  0  0  0  0  0  0  0  0  0  0
    2.0631   -0.3514   -0.2719 *   0  0  0  0  0  0  0  0  0  0  0  0
   -1.6519   -0.2827    0.0236 C   0  0  0  0  0  0  0  0  0  0  0  0
   -2.5666   -0.9846   -0.1934 O   0  0  0  0  0  0  0  0  0  0  0  0
  1  2  1  0  0  0  0
  1  5  1  0  0  0  0
  2  6  1  0  0  0  0
  3  1  1  0  0  0  0
  4  1  1  0  0  0  0
  6  7  1  0  0  0  0
  6  8  1  0  0  0  0
 10  2  2  0  0  0  0
 11 10  2  0  0  0  0
M  END
$$$$
