Compound 066, distorted structure 04
 OpenBabel12102416353D

 15 15  0  0  0  0  0  0  0  0999 V2000
   -1.0849   -0.1526    0.0128 N   0  0  0  0  0  0  0  0  0  0  0  0
   -0.7296    1.1640    0.0239 C   0  0  0  0  0  0  0  0  0  0  0  0
    0.6749    1.2132   -0.0473 C   0  0  0  0  0  0  0  0  0  0  0  0
    1.0351   -0.1376    0.0338 N   0  0  0  0  0  0  0  0  0  0  0  0
   -0.0174   -0.9517   -0.0029 C   0  0  0  0  0  2  0  0  0  0  0  0
   -2.4470   -0.6215   -0.0142 C   0  0  0  0  0  0  0  0  0  0  0  0
   -2.4481   -1.6465   -0.0142 H   0  0  0  0  0  0  0  0  0  0  0  0
   -2.9925   -0.2328   -0.9363 H   0  0  0  0  0  0  0  0  0  0  0  0
   -2.9463   -0.1849    0.8562 H   0  0  0  0  0  0  0  0  0  0  0  0
    2.4355   -0.5804   -0.0458 C   0  0  0  0  0  0  0  0  0  0  0  0
    2.9565   -0.2055   -0.9000 H   0  0  0  0  0  0  0  0  0  0  0  0
    2.4230   -1.7068   -0.0249 H   0  0  0  0  0  0  0  0  0  0  0  0
    2.9377   -0.2586    0.9360 H   0  0  0  0  0  0  0  0  0  0  0  0
   -1.3563    2.0452   -0.0027 H   0  0  0  0  0  0  0  0  0  0  0  0
    1.3931    2.0591    0.0046 H   0  0  0  0  0  0  0  0  0  0  0  0
  1  2  1  0  0  0  0
  3 15  1  0  0  0  0
  3  2  2  0  0  0  0
  3  4  1  0  0  0  0
  5  1  1  0  0  0  0
  5  4  1  0  0  0  0
  6  1  1  0  0  0  0
  6  9  1  0  0  0  0
  7  6  1  0  0  0  0
  8  6  1  0  0  0  0
 10 12  1  0  0  0  0
 10  4  1  0  0  0  0
 10 13  1  0  0  0  0
 11 10  1  0  0  0  0
 14  2  1  0  0  0  0
M  END
$$$$
