15
Compound 066, distorted structure 01
N    -1.0761267   -0.1287687    0.0081175 
C    -0.6633532    1.2155346   -0.0130626 
C     0.6686662    1.2073001    0.0169197 
N     1.0589875   -0.1060412    0.0048316 
C    -0.0127855   -0.9734895   -0.0081981 
C    -2.4493508   -0.5645012   -0.0142056 
H    -2.4319085   -1.6697173   -0.0006096 
H    -2.9838095   -0.1953211   -0.9057939 
H    -2.9822311   -0.1989241    0.8962055 
C     2.4308281   -0.5676518    0.0041334 
H     2.9555996   -0.1983758   -0.9010245 
H     2.4245474   -1.6569376    0.0054496 
H     2.9856715   -0.2014587    0.8984332 
H    -1.3741728    2.0262212   -0.0100120 
H     1.3664323    2.0274146    0.0040333 
