15
Compound 066 optimized with r2SCAN-3c
N    -1.0602611   -0.1215937    0.0000750 
C    -0.6777625    1.2127160    0.0000456 
C     0.6777670    1.2127112    0.0000785 
N     1.0602538   -0.1216018    0.0001229 
C    -0.0000070   -0.9852326    0.0001906 
C    -2.4432584   -0.5696448    0.0000010 
H    -2.4352792   -1.6604500   -0.0003148 
H    -2.9685166   -0.2099095   -0.8922097 
H    -2.9684623   -0.2104380    0.8924588 
C     2.4432474   -0.5696647   -0.0000306 
H     2.9683333   -0.2103574   -0.8925166 
H     2.4352586   -1.6604696    0.0001610 
H     2.9686292   -0.2100389    0.8921517 
H    -1.3803857    2.0334275    0.0000010 
H     1.3803967    2.0334167    0.0000829 
