15
Compound 066, distorted structure 08
N    -1.0676218   -0.0477212    0.0477513 
C    -0.7439301    1.2696881   -0.0630829 
C     0.6038526    1.2331560   -0.0134755 
N     0.9686029   -0.0685288   -0.0644114 
C     0.0415631   -0.9690919    0.0000757 
C    -2.4530869   -0.5464900   -0.0324370 
H    -2.4539914   -1.7215502   -0.0888492 
H    -2.9520903   -0.1970004   -0.8001654 
H    -2.9738002   -0.1169849    0.9110712 
C     2.5087903   -0.5380806    0.0082286 
H     2.9507655   -0.2658896   -0.8914417 
H     2.4072395   -1.6230572   -0.0405156 
H     2.9467227   -0.2766180    0.8745989 
H    -1.4718919    1.9366946   -0.0836150 
H     1.3117169    2.0605743    0.0565607 
