15
Compound 066, distorted structure 02
N    -1.0855281   -0.1193802   -0.0101252 
C    -0.6716536    1.2224969    0.0247302 
C     0.6865757    1.2028037    0.0004597 
N     1.0524803   -0.1150370   -0.0252735 
C    -0.0202643   -0.9693754    0.0257519 
C    -2.4690541   -0.5432119   -0.0082758 
H    -2.4427762   -1.6470952   -0.0200303 
H    -2.9532256   -0.2062752   -0.8809961 
H    -2.9534647   -0.2205260    0.8829328 
C     2.4176443   -0.5775365   -0.0253516 
H     2.9684654   -0.2116906   -0.8782146 
H     2.4532530   -1.6415476    0.0041876 
H     2.9897093   -0.1929840    0.8824462 
H    -1.3771434    2.0289435   -0.0195331 
H     1.3704029    2.0440831    0.0057945 
