Compound 066, distorted structure 02
 OpenBabel12102416353D

 15 15  0  0  0  0  0  0  0  0999 V2000
   -1.0855   -0.1194   -0.0101 N   0  0  0  0  0  0  0  0  0  0  0  0
   -0.6717    1.2225    0.0247 C   0  0  0  0  0  0  0  0  0  0  0  0
    0.6866    1.2028    0.0005 C   0  0  0  0  0  0  0  0  0  0  0  0
    1.0525   -0.1150   -0.0253 N   0  0  0  0  0  0  0  0  0  0  0  0
   -0.0203   -0.9694    0.0258 C   0  0  0  0  0  2  0  0  0  0  0  0
   -2.4691   -0.5432   -0.0083 C   0  0  0  0  0  0  0  0  0  0  0  0
   -2.4428   -1.6471   -0.0200 H   0  0  0  0  0  0  0  0  0  0  0  0
   -2.9532   -0.2063   -0.8810 H   0  0  0  0  0  0  0  0  0  0  0  0
   -2.9535   -0.2205    0.8829 H   0  0  0  0  0  0  0  0  0  0  0  0
    2.4176   -0.5775   -0.0254 C   0  0  0  0  0  0  0  0  0  0  0  0
    2.9685   -0.2117   -0.8782 H   0  0  0  0  0  0  0  0  0  0  0  0
    2.4533   -1.6415    0.0042 H   0  0  0  0  0  0  0  0  0  0  0  0
    2.9897   -0.1930    0.8824 H   0  0  0  0  0  0  0  0  0  0  0  0
   -1.3771    2.0289   -0.0195 H   0  0  0  0  0  0  0  0  0  0  0  0
    1.3704    2.0441    0.0058 H   0  0  0  0  0  0  0  0  0  0  0  0
  1  6  1  0  0  0  0
  1  2  1  0  0  0  0
  1  5  1  0  0  0  0
  3 15  1  0  0  0  0
  3  2  2  0  0  0  0
  4  3  1  0  0  0  0
  4  5  1  0  0  0  0
  6  9  1  0  0  0  0
  7  6  1  0  0  0  0
  8  6  1  0  0  0  0
 10  4  1  0  0  0  0
 10 12  1  0  0  0  0
 10 13  1  0  0  0  0
 11 10  1  0  0  0  0
 14  2  1  0  0  0  0
M  END
$$$$
