15
Compound 066, distorted structure 07
N    -0.9843776   -0.1163671    0.0302624 
C    -0.6319974    1.2378870   -0.0100696 
C     0.7383791    1.2313433   -0.0170892 
N     1.0794551   -0.2030965   -0.0610593 
C    -0.0278984   -0.9683721   -0.0111671 
C    -2.3969722   -0.6418802   -0.0589204 
H    -2.3762283   -1.6753658   -0.0677170 
H    -2.9687198   -0.1582935   -0.9008322 
H    -3.0054570   -0.1849156    0.8760291 
C     2.3833386   -0.5639953   -0.0643486 
H     2.9292464   -0.1778296   -0.8599719 
H     2.5182369   -1.6770551    0.0273293 
H     2.9082821   -0.1990921    0.8836367 
H    -1.4581993    2.0367968   -0.0525604 
H     1.3751671    2.0835045    0.0378851 
