15
Compound 066, distorted structure 04
N    -1.0848726   -0.1526289    0.0127501 
C    -0.7296394    1.1640123    0.0239022 
C     0.6748569    1.2131509   -0.0472635 
N     1.0350547   -0.1375807    0.0338225 
C    -0.0173772   -0.9517130   -0.0029354 
C    -2.4470067   -0.6215020   -0.0141633 
H    -2.4480620   -1.6465401   -0.0141859 
H    -2.9925382   -0.2328054   -0.9362767 
H    -2.9463413   -0.1849031    0.8561759 
C     2.4355391   -0.5803658   -0.0458266 
H     2.9564613   -0.2054798   -0.8999529 
H     2.4229567   -1.7067596   -0.0249324 
H     2.9377460   -0.2586041    0.9359746 
H    -1.3562933    2.0451595   -0.0027264 
H     1.3931242    2.0590728    0.0045620 
