16
Compound 019, distorted structure 05
C     0.7659955   -1.2123553    0.2751982 
C    -0.7529353   -1.2562881   -0.2477515 
N    -1.4232181   -0.0137726    0.2096844 
C    -0.7594731    1.1608632   -0.2255214 
H    -2.3604477    0.0102468   -0.0833520 
C     0.6709955    1.2017855    0.2390186 
N     1.3786101   -0.0635032   -0.2630592 
H     2.3855675   -0.0615249    0.1452437 
H     1.1841383   -2.0466063   -0.1715851 
H     0.7423258   -1.2107824    1.3996553 
H    -1.2116821   -2.1174395    0.1188372 
H    -0.6752475   -1.2958862   -1.3871426 
H     0.6541724    1.2151091    1.4140265 
H     1.2965496    2.0594055   -0.1244912 
H    -1.3107190    2.1185693    0.0907549 
H    -0.6801144    1.2380991   -1.3850053 
