16
Compound 019, distorted structure 09
C     0.7628918   -1.2561911    0.3282284 
C    -0.6626154   -1.1776188   -0.2304772 
N    -1.3269752   -0.0985247    0.2043652 
C    -0.7587927    1.3053718   -0.3331950 
H    -2.3289104    0.1191477   -0.2077244 
C     0.6592833    1.1265969    0.2118215 
N     1.4379177   -0.0458920   -0.2729088 
H     2.4690267   -0.0655191    0.0088155 
H     1.3049861   -2.0205147   -0.0311940 
H     0.7340347   -1.1584633    1.4574171 
H    -1.1261710   -2.2142674    0.0684898 
H    -0.6887331   -1.3604702   -1.3104618 
H     0.7920574    1.2454694    1.3447815 
H     1.2364973    2.0969474   -0.2313489 
H    -1.3604913    2.0345583    0.1249007 
H    -0.7937027    1.2886980   -1.4626494 
