16
Compound 019 optimized with r2SCAN-3c
C     0.7156246   -1.2066179    0.2597035 
C    -0.7154276   -1.2067333   -0.2596794 
N    -1.3967248   -0.0001548    0.2257915 
C    -0.7156231    1.2065384   -0.2596683 
H    -2.3583970   -0.0002323   -0.0958416 
C     0.7154532    1.2066506    0.2596465 
N     1.3967357    0.0000532   -0.2257983 
H     2.3584101    0.0001284    0.0958280 
H     1.2455808   -2.0903122   -0.1169682 
H     0.6857668   -1.2638098    1.3653807 
H    -1.2452488   -2.0904994    0.1170138 
H    -0.6855606   -1.2639480   -1.3653552 
H     0.6856329    1.2639107    1.3653214 
H     1.2452681    2.0903979   -0.1170993 
H    -1.2455713    2.0902110    0.1170652 
H    -0.6858113    1.2637888   -1.3653439 
