16
Compound 019, distorted structure 02
C     0.6928625   -1.2082948    0.2575272 
C    -0.6936049   -1.1991254   -0.2282578 
N    -1.4114524    0.0006963    0.2446625 
C    -0.7302356    1.2332768   -0.2537298 
H    -2.3636708    0.0092314   -0.0982772 
C     0.7232394    1.2152104    0.2317524 
N     1.3911229    0.0116419   -0.2375995 
H     2.3415921   -0.0072000    0.1133706 
H     1.2730083   -2.0903110   -0.1224450 
H     0.6933303   -1.2366083    1.3616226 
H    -1.2318321   -2.1155256    0.1288079 
H    -0.6748072   -1.2725395   -1.3511588 
H     0.6780040    1.2683891    1.3474560 
H     1.2653340    2.1191984   -0.1056320 
H    -1.2602406    2.0919361    0.1104674 
H    -0.6705164    1.2456010   -1.3672693 
