11
Compound 073, distorted structure 07
C    -0.6127365   -1.1696926   -0.0266262 
C    -0.6466944   -0.3791678    1.2523943 
C    -0.5183322    0.9615599    0.6692037 
C    -0.4697730    0.8969424   -0.8737309 
C    -0.5323892   -0.4415250   -1.2168435 
H    -0.6002753    1.7445109   -1.4860406 
H    -0.6585333   -0.8171558   -2.2205407 
H    -0.6512265   -2.2517624    0.2763678 
H    -0.5853478   -0.5227170    2.2804363 
H    -0.6225089    1.8691516    1.1595815 
NA    1.5448263    0.0491401    0.0421716 
