10
Compound 077, distorted structure 09
AL   -0.4936923   -0.0499293    0.0762857 
CL    1.6988129    0.0491462    0.0612930 
C    -1.4491149   -1.8315228    0.0755058 
C    -1.4056599    1.7627370   -0.0634492 
H    -1.8702465   -1.9230328   -0.8616265 
H    -2.0658952   -1.7146115    0.7387009 
H    -0.6921972   -2.6202900    0.1331552 
H    -2.0429614    1.8511197    0.8687412 
H    -2.0209129    1.7600329   -0.7914386 
H    -0.6150439    2.6789692   -0.0251020 
