10
Compound 077, distorted structure 02
AL   -0.4544171   -0.0144713   -0.0205431 
CL    1.5982001    0.0073805   -0.0206846 
C    -1.4318503   -1.7305195    0.0151054 
C    -1.3947169    1.7210360    0.0145960 
H    -1.9989374   -1.8493228   -0.9161706 
H    -2.1547013   -1.7921371    0.8616285 
H    -0.6966974   -2.5548848    0.0547101 
H    -1.9901597    1.9020566    0.9448590 
H    -2.1621781    1.7539381   -0.8154828 
H    -0.7129452    2.5429651   -0.0680640 
