10
Compound 077 optimized with r2SCAN-3c
Al   -0.4911503   -0.0001485   -0.0003373 
Cl    1.6335960    0.0005059    0.0021572 
C    -1.3990864   -1.7235419   -0.0010757 
C    -1.3998466    1.7228429    0.0004801 
H    -1.9766962   -1.8629404   -0.9238053 
H    -2.1189676   -1.7932230    0.8238931 
H    -0.7050777   -2.5649613    0.0855181 
H    -1.9626718    1.8687417    0.9313707 
H    -2.1327102    1.7865515   -0.8133777 
H    -0.7074842    2.5638057   -0.1023541 
