10
Compound 077, distorted structure 03
AL   -0.4478739   -0.0313449   -0.0307740 
CL    1.6620447    0.0516597   -0.0145156 
C    -1.4125844   -1.7547930    0.0294071 
C    -1.3518231    1.7130157   -0.0250037 
H    -1.9840887   -1.8302449   -0.9704440 
H    -2.0816899   -1.7853089    0.8217776 
H    -0.7403939   -2.5659575    0.1221115 
H    -1.9260257    1.8222002    0.9726646 
H    -2.1553013    1.7707336   -0.8660936 
H    -0.7555369    2.5510990   -0.0873245 
