10
Compound 077, distorted structure 08
AL   -0.4036811    0.0024087   -0.0060703 
CL    1.7206560    0.1170373    0.1424509 
C    -1.4115771   -1.7608053   -0.0894072 
C    -1.2571446    1.7769311    0.0193849 
H    -2.0046854   -1.9944023   -0.8145008 
H    -2.0158077   -1.8940250    0.6928379 
H    -0.7016631   -2.6813813    0.1863602 
H    -1.9288295    1.8551551    0.8084583 
H    -2.2427356    1.9166803   -0.8197548 
H    -0.5654496    2.6154913   -0.1881198 
