Compound 077, distorted structure 03
 OpenBabel12102416353D

 10  6  0  0  0  0  0  0  0  0999 V2000
   -0.4479   -0.0313   -0.0308 *   0  0  0  0  0  0  0  0  0  0  0  0
    1.6620    0.0517   -0.0145 *   0  0  0  0  0  0  0  0  0  0  0  0
   -1.4126   -1.7548    0.0294 C   0  0  0  0  0  3  0  0  0  0  0  0
   -1.3518    1.7130   -0.0250 C   0  0  0  0  0  3  0  0  0  0  0  0
   -1.9841   -1.8302   -0.9704 H   0  0  0  0  0  0  0  0  0  0  0  0
   -2.0817   -1.7853    0.8218 H   0  0  0  0  0  0  0  0  0  0  0  0
   -0.7404   -2.5660    0.1221 H   0  0  0  0  0  0  0  0  0  0  0  0
   -1.9260    1.8222    0.9727 H   0  0  0  0  0  0  0  0  0  0  0  0
   -2.1553    1.7707   -0.8661 H   0  0  0  0  0  0  0  0  0  0  0  0
   -0.7555    2.5511   -0.0873 H   0  0  0  0  0  0  0  0  0  0  0  0
  3  7  1  0  0  0  0
  3  6  1  0  0  0  0
  4  8  1  0  0  0  0
  5  3  1  0  0  0  0
  9  4  1  0  0  0  0
 10  4  1  0  0  0  0
M  END
$$$$
