20
Compound 021, distorted structure 09
N    -1.2664186   -0.0303874    0.0382571 
C    -0.8453453    1.1969131    0.7665384 
C     0.8024403    1.2512468    0.6393843 
H    -1.2210722    1.2288866    1.7980926 
H    -1.1818906    2.1036023    0.2024146 
N     1.2777757    0.0264091    0.0428325 
H     1.1947355    1.2049653    1.6548304 
H     1.2495755    1.9891407    0.1395762 
C     0.6896714   -0.0044062   -1.3947579 
C    -0.7022814    0.0451570   -1.4228746 
H     1.2409897   -0.7725391   -1.9172540 
H     1.1822926    0.9144807   -1.9599941 
H    -1.2125204   -0.9285244   -1.8281191 
H    -1.2022163    0.9486789   -1.9497848 
C    -0.7476855   -1.2618520    0.6350024 
C     0.8722939   -1.1366330    0.7282126 
H    -1.1387617   -2.1068429    0.1109259 
H    -1.2107852   -1.2834999    1.7154275 
H     1.1192304   -2.0881373    0.0724577 
H     1.1112389   -1.2208024    1.7615321 
