Compound 021, distorted structure 02
 OpenBabel12102416353D

 20 21  0  0  1  0  0  0  0  0999 V2000
   -1.3120    0.0145   -0.0018 N   0  0  1  0  0  0  0  0  0  0  0  0
   -0.8066    1.2022    0.6830 C   0  0  0  0  0  0  0  0  0  0  0  0
    0.7883    1.1743    0.7280 C   0  0  0  0  0  0  0  0  0  0  0  0
   -1.1682    1.1884    1.7116 H   0  0  0  0  0  0  0  0  0  0  0  0
   -1.1637    2.1000    0.1991 H   0  0  0  0  0  0  0  0  0  0  0  0
    1.3151    0.0051   -0.0016 N   0  0  2  0  0  0  0  0  0  0  0  0
    1.1872    1.1547    1.7370 H   0  0  0  0  0  0  0  0  0  0  0  0
    1.2074    2.0753    0.1987 H   0  0  0  0  0  0  0  0  0  0  0  0
    0.7851    0.0397   -1.3807 C   0  0  0  0  0  0  0  0  0  0  0  0
   -0.7728    0.0269   -1.3933 C   0  0  0  0  0  0  0  0  0  0  0  0
    1.1926   -0.8436   -1.8981 H   0  0  0  0  0  0  0  0  0  0  0  0
    1.1824    0.8984   -1.8708 H   0  0  0  0  0  0  0  0  0  0  0  0
   -1.1940   -0.8581   -1.8915 H   0  0  0  0  0  0  0  0  0  0  0  0
   -1.1656    0.9292   -1.8645 H   0  0  0  0  0  0  0  0  0  0  0  0
   -0.8019   -1.2163    0.6914 C   0  0  0  0  0  0  0  0  0  0  0  0
    0.7784   -1.2062    0.6876 C   0  0  0  0  0  0  0  0  0  0  0  0
   -1.1799   -2.0815    0.1295 H   0  0  0  0  0  0  0  0  0  0  0  0
   -1.1700   -1.2047    1.6926 H   0  0  0  0  0  0  0  0  0  0  0  0
    1.1665   -2.0962    0.1339 H   0  0  0  0  0  0  0  0  0  0  0  0
    1.1890   -1.2011    1.7018 H   0  0  0  0  0  0  0  0  0  0  0  0
  1 10  1  6  0  0  0
  1  2  1  0  0  0  0
  1 15  1  0  0  0  0
  2  3  1  0  0  0  0
  2  4  1  0  0  0  0
  3  7  1  0  0  0  0
  5  2  1  0  0  0  0
  6  9  1  6  0  0  0
  6 16  1  0  0  0  0
  6  3  1  0  0  0  0
  8  3  1  0  0  0  0
 10  9  1  0  0  0  0
 11  9  1  0  0  0  0
 12  9  1  0  0  0  0
 13 10  1  0  0  0  0
 14 10  1  0  0  0  0
 15 18  1  0  0  0  0
 16 15  1  0  0  0  0
 16 20  1  0  0  0  0
 17 15  1  0  0  0  0
 19 16  1  0  0  0  0
M  END
$$$$
