20
Compound 021, distorted structure 02
N    -1.3120020    0.0145290   -0.0017829 
C    -0.8065501    1.2021969    0.6830348 
C     0.7883199    1.1743124    0.7279528 
H    -1.1682485    1.1884449    1.7115564 
H    -1.1637126    2.1000032    0.1990548 
N     1.3150545    0.0050855   -0.0015510 
H     1.1871781    1.1547053    1.7369971 
H     1.2073850    2.0753133    0.1987499 
C     0.7851145    0.0396571   -1.3807022 
C    -0.7727937    0.0269115   -1.3932502 
H     1.1926389   -0.8436144   -1.8980702 
H     1.1823892    0.8984090   -1.8708161 
H    -1.1939714   -0.8580842   -1.8915072 
H    -1.1656485    0.9291826   -1.8644963 
C    -0.8018755   -1.2163015    0.6914198 
C     0.7784392   -1.2061560    0.6875685 
H    -1.1798889   -2.0814994    0.1295058 
H    -1.1699772   -1.2047086    1.6926296 
H     1.1665055   -2.0962446    0.1339120 
H     1.1889879   -1.2010803    1.7018330 
