20
Compound 021, distorted structure 05
N    -1.2618216   -0.0305838   -0.0428238 
C    -0.7804386    1.1598671    0.6726266 
C     0.7471148    1.1700827    0.7157487 
H    -1.2015105    1.1847527    1.7701271 
H    -1.1852856    2.0967244    0.1981486 
N     1.2812820    0.0395553   -0.0034110 
H     1.1647149    1.2066799    1.6859912 
H     1.1800555    2.0972811    0.1814147 
C     0.7812755   -0.0207377   -1.4020909 
C    -0.7463794    0.0374606   -1.3970003 
H     1.2194619   -0.8316175   -1.9433088 
H     1.2082582    0.8895233   -1.8411479 
H    -1.1516878   -0.9038862   -1.8935615 
H    -1.1593097    0.8684995   -1.9222331 
C    -0.8103260   -1.1616153    0.7002915 
C     0.7672158   -1.2405509    0.6640168 
H    -1.1554604   -2.0394183    0.1572933 
H    -1.1427649   -1.1900727    1.6967547 
H     1.2072410   -2.0378840    0.1640602 
H     1.2213299   -1.1924065    1.7028477 
