20
Compound 021, distorted structure 04
N    -1.2532999   -0.0204183    0.0362394 
C    -0.8098504    1.1810001    0.7159342 
C     0.7798700    1.1730404    0.7111853 
H    -1.1668542    1.1650404    1.7371388 
H    -1.1628968    2.0576561    0.2201361 
N     1.2581685   -0.0087068   -0.0325599 
H     1.1436119    1.1483568    1.7003844 
H     1.1465908    2.1124542    0.1766253 
C     0.7438063    0.0002710   -1.3925943 
C    -0.7796452   -0.0113341   -1.3863278 
H     1.2142652   -0.8254277   -1.8778382 
H     1.1784458    0.9121792   -1.9185804 
H    -1.1824222   -0.8407485   -1.8690618 
H    -1.1979984    0.8934042   -1.9030118 
C    -0.7844383   -1.1797747    0.6605559 
C     0.7514987   -1.2124766    0.7082732 
H    -1.2048365   -2.0718557    0.1203963 
H    -1.1586271   -1.2241457    1.7067469 
H     1.2079627   -2.0878162    0.1302129 
H     1.1689430   -1.2078666    1.6643243 
