20
Compound 021, distorted structure 03
N    -1.2965921   -0.0248139   -0.0274950 
C    -0.7957872    1.1621839    0.7307042 
C     0.7645103    1.1729707    0.7127825 
H    -1.1912850    1.1777426    1.7328711 
H    -1.1789534    2.0956081    0.1991416 
N     1.3172022   -0.0291007   -0.0188820 
H     1.1596958    1.2031118    1.7369267 
H     1.1690649    2.0953303    0.2072635 
C     0.7785208   -0.0058519   -1.4019424 
C    -0.7584182   -0.0030535   -1.4097497 
H     1.1774010   -0.8477983   -1.8938411 
H     1.2025850    0.9084959   -1.8601713 
H    -1.1503484   -0.8417100   -1.8762863 
H    -1.1877612    0.8998884   -1.9049039 
C    -0.7954251   -1.1900997    0.6634213 
C     0.7619673   -1.2254374    0.6434812 
H    -1.2119605   -2.0576627    0.1450611 
H    -1.1541204   -1.1927204    1.7219990 
H     1.1516183   -2.0574932    0.1383181 
H     1.1840335   -1.2026077    1.7182779 
