19
Compound 064, distorted structure 01
B    -0.0067519   -0.4908972   -0.0017539 
C    -0.7953797    0.8833406    0.0099298 
C     1.5617930   -0.4956352   -0.0513618 
C    -0.7778154   -1.8574482    0.0721716 
C    -2.3167097    0.8639712    0.0505004 
H    -0.4521967    1.4852624   -0.8703136 
H    -0.4047359    1.4916095    0.8431097 
H    -2.7253943    0.3346891   -0.8305301 
H    -2.7336508    1.8575813    0.0587501 
H    -2.6724331    0.3193146    0.9257886 
H     1.8328952   -1.0280781   -1.0226911 
H     1.9531432   -1.2020172    0.6868679 
C     2.3408405    0.8328991    0.0196734 
H     2.0379171    1.5210398   -0.7680188 
H     3.4208977    0.6677735   -0.0584510 
H     2.1351418    1.3373304    0.9583643 
H    -1.2200782   -1.9177940    1.0742181 
H    -0.1530609   -2.7239913   -0.0416962 
H    -1.6301209   -1.8992337   -0.6027062 
