19
Compound 064 optimized with r2SCAN-3c
B    -0.0067483   -0.4783790    0.0049704 
C    -0.7869841    0.8892110    0.0046285 
C     1.5674668   -0.4970052   -0.0648576 
C    -0.7755710   -1.8482969    0.0894147 
C    -2.3181890    0.8565572    0.0458324 
H    -0.4462711    1.4696751   -0.8700607 
H    -0.4002126    1.4843129    0.8505005 
H    -2.7292973    0.3473326   -0.8325675 
H    -2.7483863    1.8634872    0.0716655 
H    -2.6820921    0.3202573    0.9290278 
H     1.8164779   -1.0129214   -1.0105315 
H     1.9384252   -1.2000854    0.6996596 
C     2.3333092    0.8270930    0.0192335 
H     2.0294156    1.5182286   -0.7743187 
H     3.4149070    0.6797835   -0.0706620 
H     2.1503761    1.3319284    0.9742706 
H    -1.2315682   -1.9307427    1.0893088 
H    -0.1502771   -2.7361935   -0.0554516 
H    -1.6247607   -1.8981627   -0.6048126 
