19
Compound 064, distorted structure 03
B    -0.0398561   -0.4946655    0.0177138 
C    -0.8263241    0.8666756    0.0057232 
C     1.5455485   -0.4925781   -0.0400400 
C    -0.7349288   -1.8280770    0.1262405 
C    -2.2900213    0.8360336    0.0764445 
H    -0.4392324    1.4325005   -0.8672056 
H    -0.3773816    1.4958412    0.8368519 
H    -2.7175177    0.3089579   -0.8141836 
H    -2.7826569    1.8608435    0.0553295 
H    -2.6430731    0.2815082    0.8904765 
H     1.7796354   -0.9773293   -1.0333822 
H     1.9279820   -1.2364656    0.7253972 
C     2.3191349    0.8129831    0.0470062 
H     2.0573792    1.5237787   -0.8040059 
H     3.4379347    0.7213665   -0.0504683 
H     2.1290686    1.3387056    0.9800523 
H    -1.2415758   -1.9083507    1.0882861 
H    -0.1339898   -2.7335550   -0.0767856 
H    -1.6378895   -1.8712434   -0.6245151 
