19
Compound 064, distorted structure 02
B    -0.0239647   -0.4734616    0.0231431 
C    -0.7932394    0.8720465   -0.0157923 
C     1.5771858   -0.5036198   -0.0629885 
C    -0.7778458   -1.8213142    0.1152485 
C    -2.3322768    0.8526357    0.0585738 
H    -0.4324928    1.4769782   -0.8509251 
H    -0.4187744    1.5022900    0.8618506 
H    -2.7164513    0.3365207   -0.8542068 
H    -2.7383291    1.8396756    0.0651726 
H    -2.6866612    0.2996742    0.9172668 
H     1.7921669   -1.0147569   -1.0082883 
H     1.9117693   -1.2238284    0.6948063 
C     2.3335464    0.8383689    0.0300302 
H     2.0390684    1.4952442   -0.7549581 
H     3.4070982    0.6962048   -0.0902619 
H     2.1615915    1.3289824    0.9840730 
H    -1.2320452   -1.9099215    1.0830458 
H    -0.1372220   -2.7315837   -0.0765828 
H    -1.6370941   -1.9215664   -0.6163569 
