19
Compound 064, distorted structure 04
B    -0.0468308   -0.4334011    0.0259877 
C    -0.8106782    0.8636699    0.0144057 
C     1.5588708   -0.5424717   -0.0676958 
C    -0.7734426   -1.8612683    0.0498264 
C    -2.2793021    0.8091386    0.0041446 
H    -0.4432795    1.4731688   -0.8307383 
H    -0.4347377    1.4884648    0.8985320 
H    -2.7196435    0.3834088   -0.8787415 
H    -2.7320970    1.8955373    0.0945256 
H    -2.7242517    0.3377571    0.9161876 
H     1.8019520   -1.0249482   -0.9927039 
H     1.9643881   -1.1623220    0.6925125 
C     2.3392521    0.7853893    0.0608578 
H     2.0330756    1.5226913   -0.7325502 
H     3.3978219    0.6471747   -0.0976477 
H     2.1919346    1.3756260    0.9834390 
H    -1.2344372   -1.9556827    1.1032214 
H    -0.1278387   -2.7235051   -0.0960473 
H    -1.5981912   -1.9349379   -0.5699398 
