19
Compound 064, distorted structure 05
B    -0.0010016   -0.5376913    0.0290041 
C    -0.7568178    0.8305242    0.0269670 
C     1.6074988   -0.5064572   -0.0907668 
C    -0.7706819   -1.8460475    0.1373962 
C    -2.2599356    0.8000437    0.0051786 
H    -0.4060452    1.4695362   -0.8561124 
H    -0.3887363    1.4592240    0.9087156 
H    -2.6847104    0.3186193   -0.8259186 
H    -2.7743576    1.8568543    0.0445296 
H    -2.7010254    0.3788178    0.9705416 
H     1.8363296   -1.0728608   -1.0293123 
H     1.8825343   -1.1903161    0.7399336 
C     2.3389833    0.7843873   -0.0307697 
H     2.0634239    1.4695082   -0.7600080 
H     3.4256677    0.6833102   -0.0341931 
H     2.1416999    1.3749683    1.0231613 
H    -1.2507421   -1.9103661    1.1058299 
H    -0.0976656   -2.7792169   -0.1048825 
H    -1.6302127   -1.8767821   -0.6013801 
