12
Compound 038, distorted structure 01
C     1.5307501    0.6367796   -0.0030850 
C     0.0826537    1.1989034   -0.0100234 
C    -0.7986283   -0.0137661   -0.0174881 
O    -2.0319145    0.0298322    0.0054205 
C     0.0424747   -1.2062007    0.0111197 
C     1.3366248   -0.8555307   -0.0114346 
H     2.0925641    0.9823381    0.8977636 
H     2.1119571    0.9620943   -0.8911568 
H    -0.1465495    1.8298376   -0.9020489 
H    -0.1299155    1.8296368    0.8693102 
H    -0.3545272   -2.2334659    0.0206991 
H     2.1991821   -1.5244702    0.0203250 
