12
Compound 038, distorted structure 06
C     1.5798689    0.6126405    0.0632679 
C     0.1492207    1.1805175    0.0819723 
C    -0.8433033   -0.0769284   -0.0714218 
O    -2.0562323    0.1055573   -0.0456466 
C     0.0448392   -1.2421054   -0.0761745 
C     1.2567554   -0.8730152    0.0823852 
H     2.0861232    1.0114205    0.8167903 
H     2.0930784    1.0362131   -0.8596601 
H    -0.0949409    1.8007727   -0.8899750 
H    -0.1656115    1.8989283    0.8066482 
H    -0.3723922   -2.2439218   -0.0622578 
H     2.1361797   -1.6039829    0.0306973 
