12
Compound 038, distorted structure 05
C     1.5531855    0.6806729   -0.0588322 
C     0.0388927    1.2020932   -0.0593326 
C    -0.7559100   -0.0215581   -0.0328777 
O    -2.0504923    0.0086673    0.0317089 
C     0.0460883   -1.2081937   -0.0010346 
C     1.3271197   -0.7827246    0.0249403 
H     2.1384287    0.9769033    0.9246963 
H     2.0668135    0.9407997   -0.9043310 
H    -0.0870669    1.7978269   -0.9250180 
H    -0.1600261    1.8275381    0.8081435 
H    -0.3957679   -2.1582047    0.0559774 
H     2.2226652   -1.4877153   -0.0765839 
