17
Compound 078, distorted structure 01
AL   -1.0342331    0.0185072    0.0004577 
C     0.8161152    0.6680914   -0.0083967 
C    -2.4794008    1.2931598   -0.0021151 
C    -1.3754213   -1.9093454   -0.0167847 
H    -2.1335489   -2.1866916   -0.7583667 
H    -1.7964178   -2.2410102    0.9558013 
H    -0.4748430   -2.5493788   -0.1787125 
H    -2.4655069    1.9441753    0.8964198 
H    -3.4950237    0.8313321   -0.0064614 
H    -2.4256530    1.9898103   -0.8438055 
C     1.8832645   -0.1717262   -0.0027822 
C     3.3070332    0.2461146   -0.0045475 
H     3.4290166    1.3172029    0.0111212 
H     3.8383404   -0.1811747   -0.8600532 
H     3.8280455   -0.1768780    0.8908213 
H     1.0596173    1.7370627   -0.0230297 
H     1.7145388   -1.2474531    0.0188547 
