17
Compound 078 optimized with r2SCAN-3c
Al   -1.0197211    0.0092380   -0.0131959 
C     0.8171069    0.6561241   -0.0162364 
C    -2.4939371    1.3039146    0.0060793 
C    -1.3709346   -1.9220804   -0.0046187 
H    -2.1234757   -2.1920793   -0.7562594 
H    -1.7860281   -2.2365962    0.9625390 
H    -0.4854386   -2.5394206   -0.1890267 
H    -2.4545269    1.9352772    0.9037263 
H    -3.4845862    0.8373936   -0.0203543 
H    -2.4323278    1.9925236   -0.8468290 
C     1.8761456   -0.1711266   -0.0028403 
C     3.3171856    0.2348354    0.0058280 
H     3.4280783    1.3228455   -0.0023422 
H     3.8429422   -0.1781038   -0.8647081 
H     3.8280209   -0.1631034    0.8921030 
H     1.0560304    1.7255387   -0.0212984 
H     1.7089282   -1.2530350    0.0034089 
