17
Compound 078, distorted structure 02
AL   -1.0091956    0.0307661   -0.0148419 
C     0.8171385    0.6868748   -0.0216499 
C    -2.4633429    1.3191999   -0.0162564 
C    -1.3487540   -1.9259379   -0.0196749 
H    -2.1010754   -2.1746440   -0.7750543 
H    -1.7708482   -2.2101099    0.9357380 
H    -0.4760974   -2.5628944   -0.1958127 
H    -2.4787310    1.9088384    0.8989922 
H    -3.4639027    0.8390745    0.0044938 
H    -2.4246722    1.9852924   -0.8576114 
C     1.8996057   -0.1771517    0.0099921 
C     3.3075238    0.2655012    0.0168944 
H     3.4396780    1.3488078   -0.0006981 
H     3.8606878   -0.2034874   -0.8707580 
H     3.8276689   -0.1509414    0.8873273 
H     1.0350124    1.7502584   -0.0081935 
H     1.6886306   -1.2669846   -0.0122311 
