17
Compound 078, distorted structure 06
AL   -0.9877331    0.0450232   -0.0527228 
C     0.7662940    0.7098555   -0.0074708 
C    -2.4595034    1.3349476    0.0161659 
C    -1.4005057   -1.9111921    0.0453626 
H    -2.0739431   -2.2450820   -0.7879465 
H    -1.7857381   -2.2003526    0.9270745 
H    -0.4853870   -2.5644818   -0.2419720 
H    -2.4087012    1.9028502    0.9079882 
H    -3.4543035    0.7948049    0.0126424 
H    -2.4264293    1.9927820   -0.8004030 
C     1.8778136   -0.2100922   -0.0335147 
C     3.3440244    0.1814315    0.0103572 
H     3.3758507    1.3371609    0.0298744 
H     3.8264981   -0.1609380   -0.9191219 
H     3.8436158   -0.1245784    0.8714194 
H     1.0472272    1.6774726   -0.0318449 
H     1.6891831   -1.2008101   -0.0389884 
