17
Compound 078, distorted structure 04
AL   -1.0028657   -0.0253445   -0.0632239 
C     0.7849742    0.6965888   -0.0000329 
C    -2.4718635    1.2433164    0.0569797 
C    -1.3305171   -1.9717876   -0.0408077 
H    -2.0814643   -2.2551824   -0.8078838 
H    -1.8199995   -2.1991918    0.9940510 
H    -0.4459715   -2.5681138   -0.1561978 
H    -2.4275584    1.9581206    0.8420874 
H    -3.5261478    0.8514967    0.0240113 
H    -2.5002104    1.9396848   -0.9165967 
C     1.8920489   -0.1194367    0.0485004 
C     3.2921142    0.1962486   -0.0492355 
H     3.4132696    1.2889311   -0.0014230 
H     3.8747491   -0.2153969   -0.8688095 
H     3.8370582   -0.1223804    0.8500399 
H     1.0078268    1.7727221   -0.0478489 
H     1.7303352   -1.2486156   -0.0159144 
