Compound 078, distorted structure 01
 OpenBabel12102416353D

 17 13  0  0  0  0  0  0  0  0999 V2000
   -1.0342    0.0185    0.0005 *   0  0  0  0  0  0  0  0  0  0  0  0
    0.8161    0.6681   -0.0084 C   0  0  0  0  0  3  0  0  0  0  0  0
   -2.4794    1.2932   -0.0021 C   0  0  0  0  0  3  0  0  0  0  0  0
   -1.3754   -1.9093   -0.0168 C   0  0  0  0  0  3  0  0  0  0  0  0
   -2.1335   -2.1867   -0.7584 H   0  0  0  0  0  0  0  0  0  0  0  0
   -1.7964   -2.2410    0.9558 H   0  0  0  0  0  0  0  0  0  0  0  0
   -0.4748   -2.5494   -0.1787 H   0  0  0  0  0  0  0  0  0  0  0  0
   -2.4655    1.9442    0.8964 H   0  0  0  0  0  0  0  0  0  0  0  0
   -3.4950    0.8313   -0.0065 H   0  0  0  0  0  0  0  0  0  0  0  0
   -2.4257    1.9898   -0.8438 H   0  0  0  0  0  0  0  0  0  0  0  0
    1.8833   -0.1717   -0.0028 C   0  0  0  0  0  0  0  0  0  0  0  0
    3.3070    0.2461   -0.0045 C   0  0  0  0  0  0  0  0  0  0  0  0
    3.4290    1.3172    0.0111 H   0  0  0  0  0  0  0  0  0  0  0  0
    3.8383   -0.1812   -0.8601 H   0  0  0  0  0  0  0  0  0  0  0  0
    3.8280   -0.1769    0.8908 H   0  0  0  0  0  0  0  0  0  0  0  0
    1.0596    1.7371   -0.0230 H   0  0  0  0  0  0  0  0  0  0  0  0
    1.7145   -1.2475    0.0189 H   0  0  0  0  0  0  0  0  0  0  0  0
  2 11  2  0  0  0  0
  3  8  1  0  0  0  0
  4  6  1  0  0  0  0
  5  4  1  0  0  0  0
  7  4  1  0  0  0  0
  9  3  1  0  0  0  0
 10  3  1  0  0  0  0
 11 17  1  0  0  0  0
 12 11  1  0  0  0  0
 12 13  1  0  0  0  0
 12 15  1  0  0  0  0
 14 12  1  0  0  0  0
 16  2  1  0  0  0  0
M  END
$$$$
