17
Compound 078, distorted structure 08
AL   -1.0768355    0.0389952   -0.0541441 
C     0.7579458    0.5837119    0.0581417 
C    -2.5655499    1.3885511   -0.0524134 
C    -1.4069269   -1.8956091    0.0484046 
H    -2.2012211   -2.2217458   -0.8151367 
H    -1.7873703   -2.1605516    1.0310013 
H    -0.4183370   -2.4668271   -0.2269025 
H    -2.4557667    1.8747623    0.9025461 
H    -3.5679745    0.8829171   -0.0781892 
H    -2.4674109    2.0104230   -0.7715071 
C     1.8289190   -0.1313729   -0.0777687 
C     3.2940961    0.3163659    0.0356117 
H     3.4078759    1.3546467    0.0798622 
H     3.8912863   -0.1699825   -0.9357031 
H     3.9020401   -0.1741880    0.9513497 
H     0.9874408    1.7387266   -0.0509836 
H     1.7165550   -1.2937871    0.0480434 
