17
Compound 078, distorted structure 07
AL   -1.0157645   -0.0019130    0.0390928 
C     0.8714020    0.5683720   -0.0968015 
C    -2.4982874    1.2594612    0.1188445 
C    -1.3264019   -1.9571980   -0.0401364 
H    -2.2393675   -2.1071084   -0.7153244 
H    -1.7100240   -2.1280368    1.0136160 
H    -0.5587546   -2.6256507   -0.1841543 
H    -2.4353808    2.0098958    0.8976118 
H    -3.4673227    0.8969494    0.0597360 
H    -2.4576731    2.0846348   -0.7773215 
C     1.9896757   -0.1391430   -0.0359231 
C     3.3032091    0.2917549    0.0643257 
H     3.3426074    1.2916124   -0.0720621 
H     3.9493889   -0.1161701   -0.8523913 
H     3.8287253   -0.1022008    0.9841924 
H     1.0345975    1.6345928   -0.0168232 
H     1.7067470   -1.2019865   -0.0404187 
