22
Compound 072, distorted structure 08
C     2.0023404    1.1765693   -0.4454132 
C     2.0455525    0.0908849    0.6070076 
H     1.9413152    2.1356845    0.1967756 
H     1.0107076    1.1562391   -1.0235430 
H     2.8569773    1.2027798   -1.1741493 
C     1.8611726   -1.3238963   -0.2041752 
H     1.1286030    0.1900633    1.3312199 
H     2.9286157    0.1799586    1.1916415 
H     2.0097060   -2.1977263    0.5300476 
H     2.7246292   -1.3643543   -0.8009938 
H     0.9238437   -1.3104145   -0.7746131 
C    -1.9579192    1.2208071    0.1172261 
C    -2.0434883    0.0025044   -0.5842553 
H    -2.0169815    2.1416302   -0.4917710 
H    -1.0144077    1.3724761    0.6798715 
H    -2.7348524    1.3726162    0.8689813 
C    -1.9868621   -1.2459292    0.4921753 
H    -1.1551820   -0.1481327   -1.1985209 
H    -2.9542580   -0.1574024   -1.1114048 
H    -0.9653086   -1.1681957    0.9860839 
H    -2.0336723   -2.2141707   -0.0894916 
H    -2.7027570   -1.1811920    1.1039477 
