Compound 072, distorted structure 09
 OpenBabel12102416353D

 22 20  0  0  0  0  0  0  0  0999 V2000
    1.9993    1.1694   -0.3751 C   0  0  0  0  0  0  0  0  0  0  0  0
    1.9637    0.0450    0.6079 C   0  0  0  0  0  0  0  0  0  0  0  0
    1.9032    2.2159    0.1262 H   0  0  0  0  0  0  0  0  0  0  0  0
    0.9357    1.1496   -1.0405 H   0  0  0  0  0  0  0  0  0  0  0  0
    2.7158    1.1933   -1.0666 H   0  0  0  0  0  0  0  0  0  0  0  0
    1.9134   -1.3583   -0.0929 C   0  0  0  0  0  0  0  0  0  0  0  0
    1.0857    0.1804    1.3027 H   0  0  0  0  0  0  0  0  0  0  0  0
    2.9246    0.1088    1.1141 H   0  0  0  0  0  0  0  0  0  0  0  0
    2.0236   -2.1718    0.5908 H   0  0  0  0  0  0  0  0  0  0  0  0
    2.7152   -1.3586   -0.8706 H   0  0  0  0  0  0  0  0  0  0  0  0
    1.0259   -1.4138   -0.6978 H   0  0  0  0  0  0  0  0  0  0  0  0
   -1.9036    1.3606    0.0868 C   0  0  0  0  0  0  0  0  0  0  0  0
   -2.0522   -0.0395   -0.4924 C   0  0  0  0  0  0  0  0  0  0  0  0
   -1.9888    2.1054   -0.5654 H   0  0  0  0  0  0  0  0  0  0  0  0
   -0.9349    1.4185    0.7328 H   0  0  0  0  0  0  0  0  0  0  0  0
   -2.8342    1.4121    0.8685 H   0  0  0  0  0  0  0  0  0  0  0  0
   -1.9343   -1.2282    0.4306 C   0  0  0  0  0  0  0  0  0  0  0  0
   -1.1249   -0.1885   -1.2443 H   0  0  0  0  0  0  0  0  0  0  0  0
   -2.8799   -0.0453   -1.1571 H   0  0  0  0  0  0  0  0  0  0  0  0
   -1.0435   -1.1558    0.9613 H   0  0  0  0  0  0  0  0  0  0  0  0
   -1.9727   -2.2499   -0.1400 H   0  0  0  0  0  0  0  0  0  0  0  0
   -2.7345   -1.2165    1.1272 H   0  0  0  0  0  0  0  0  0  0  0  0
  1  3  1  0  0  0  0
  1  2  1  0  0  0  0
  2  8  1  0  0  0  0
  2  7  1  0  0  0  0
  4  1  1  0  0  0  0
  5  1  1  0  0  0  0
  6  9  1  0  0  0  0
  6  2  1  0  0  0  0
 10  6  1  0  0  0  0
 11  6  1  0  0  0  0
 12 15  1  0  0  0  0
 12 16  1  0  0  0  0
 13 12  1  0  0  0  0
 13 17  1  0  0  0  0
 14 12  1  0  0  0  0
 17 20  1  0  0  0  0
 17 22  1  0  0  0  0
 18 13  1  0  0  0  0
 19 13  1  0  0  0  0
 21 17  1  0  0  0  0
M  END
$$$$
