22
Compound 072, distorted structure 06
C     1.9959361    1.2099865   -0.3822087 
C     1.9775281   -0.0055627    0.5892583 
H     1.9537915    2.1391798    0.1837989 
H     0.9928587    1.1717059   -1.0590253 
H     2.8007738    1.2076858   -1.0529100 
C     1.9474406   -1.2681924   -0.1609088 
H     1.2016783    0.1449147    1.2142983 
H     2.8917540    0.1332139    1.1881061 
H     1.9634013   -2.1379737    0.5452545 
H     2.7915054   -1.4134040   -0.8314661 
H     0.9557168   -1.3587365   -0.7338417 
C    -1.9426520    1.2949823    0.1497505 
C    -2.0000055   -0.0567345   -0.5227330 
H    -2.0244585    2.1890765   -0.4818621 
H    -1.0242462    1.3301718    0.7326074 
H    -2.7890189    1.4518929    0.8483989 
C    -1.8886352   -1.1798516    0.3557144 
H    -1.1745875   -0.0983067   -1.2214961 
H    -2.9168841   -0.1660503   -1.1073331 
H    -0.9664115   -1.2333658    1.0467229 
H    -1.9703149   -2.1650858   -0.0878146 
H    -2.8320895   -1.2300286    1.1002887 
