22
Compound 072, distorted structure 04
C     1.9033239    1.1998952   -0.4004814 
C     2.0174582    0.0661476    0.5271708 
H     1.9861484    2.1692613    0.1194524 
H     1.0068395    1.2486756   -0.9600524 
H     2.8083828    1.1696403   -1.1529006 
C     1.9037884   -1.3381354   -0.1783545 
H     1.1830310    0.1265581    1.2672416 
H     2.8961253    0.1237994    1.1241692 
H     1.9869906   -2.1308723    0.5553554 
H     2.7743207   -1.4497995   -0.8576413 
H     1.0080609   -1.3542319   -0.7922120 
C    -1.9659240    1.3128917    0.1813593 
C    -2.0194239   -0.0100532   -0.5682156 
H    -2.0028755    2.0987076   -0.5092316 
H    -1.0066010    1.3665276    0.7881906 
H    -2.7702637    1.4454074    0.8123802 
C    -1.9611859   -1.2223526    0.4186634 
H    -1.1893543   -0.1531625   -1.2530661 
H    -2.9223782   -0.0837420   -1.1831721 
H    -0.9763835   -1.1897017    1.0310448 
H    -1.9377062   -2.2142863   -0.1412041 
H    -2.7859343   -1.2071314    1.0765996 
