14
Compound 049, distorted structure 05
C    -0.5477248   -1.2730440    0.0380605 
C    -1.8841607   -1.2294036    0.0417393 
C    -2.5395594    0.0711919   -0.0344214 
N    -1.9142229    1.1678539   -0.0296112 
C    -0.5661241    1.1625754    0.0477533 
C     0.2039713   -0.0090073   -0.0386252 
C     1.6994638   -0.1252365    0.0458262 
H     0.0445206   -2.2214726   -0.0507236 
H    -2.4732952   -2.1062194   -0.0533277 
H    -3.5946844    0.1145793   -0.0226998 
H     0.0251218    2.1399865   -0.0387038 
O     2.2083601    1.1582887   -0.0136054 
H     3.2104823    0.9470653    0.0355879 
O     2.3691053   -1.1341574   -0.0504870 
