Compound 049, distorted structure 02
 OpenBabel12102416353D

 14 14  0  0  1  0  0  0  0  0999 V2000
   -0.5356   -1.2637    0.0187 C   0  0  0  0  0  0  0  0  0  0  0  0
   -1.9133   -1.1715    0.0255 C   0  0  0  0  0  0  0  0  0  0  0  0
   -2.5448    0.0424   -0.0059 C   0  0  0  0  0  0  0  0  0  0  0  0
   -1.8536    1.2088   -0.0075 N   0  0  0  0  0  4  0  0  0  0  0  0
   -0.5407    1.1687   -0.0266 C   0  0  0  0  0  0  0  0  0  0  0  0
    0.1710   -0.0629    0.0018 C   0  0  2  0  0  3  0  0  0  0  0  0
    1.6628   -0.0958   -0.0266 C   0  0  0  0  0  0  0  0  0  0  0  0
   -0.0130   -2.1878   -0.0229 H   0  0  0  0  0  0  0  0  0  0  0  0
   -2.4972   -2.0648   -0.0276 H   0  0  0  0  0  0  0  0  0  0  0  0
   -3.5977    0.1517   -0.0059 H   0  0  0  0  0  0  0  0  0  0  0  0
   -0.0074    2.1301    0.0184 H   0  0  0  0  0  0  0  0  0  0  0  0
    2.2581    1.1232   -0.0041 O   0  0  0  0  0  0  0  0  0  0  0  0
    3.1911    0.9969    0.0224 H   0  0  0  0  0  0  0  0  0  0  0  0
    2.3282   -1.1149    0.0300 O   0  0  0  0  0  0  0  0  0  0  0  0
  1  2  2  0  0  0  0
  3  2  1  0  0  0  0
  4  3  2  0  0  0  0
  5  4  2  0  0  0  0
  5  6  1  0  0  0  0
  5 11  1  0  0  0  0
  6  7  1  6  0  0  0
  6  1  1  0  0  0  0
  7 12  1  0  0  0  0
  7 14  2  0  0  0  0
  8  1  1  0  0  0  0
  9  2  1  0  0  0  0
 10  3  1  0  0  0  0
 12 13  1  0  0  0  0
M  END
$$$$
