14
Compound 049, distorted structure 02
C    -0.5355569   -1.2636563    0.0187479 
C    -1.9132872   -1.1715102    0.0255050 
C    -2.5448115    0.0424403   -0.0058567 
N    -1.8536019    1.2088043   -0.0075279 
C    -0.5407418    1.1686667   -0.0265712 
C     0.1709859   -0.0628903    0.0018353 
C     1.6628205   -0.0957896   -0.0266229 
H    -0.0129959   -2.1878100   -0.0229018 
H    -2.4971784   -2.0647951   -0.0276372 
H    -3.5977424    0.1517224   -0.0059176 
H    -0.0073542    2.1300857    0.0183918 
O     2.2581029    1.1232069   -0.0040568 
H     3.1911332    0.9968512    0.0223668 
O     2.3282444   -1.1149341    0.0299904 
