14
Compound 049 optimized with r2SCAN-3c
C    -0.5280053   -1.2363302   -0.0002756 
C    -1.9117370   -1.1840557   -0.0007768 
C    -2.5301790    0.0643724    0.0000282 
N    -1.8632981    1.2233848    0.0017213 
C    -0.5301731    1.1654377    0.0013135 
C     0.1843890   -0.0367706    0.0006876 
C     1.6652703   -0.0912994    0.0005037 
H     0.0152839   -2.1764488   -0.0006570 
H    -2.5075257   -2.0914107   -0.0014119 
H    -3.6172938    0.1381197   -0.0008542 
H    -0.0016280    2.1161439    0.0004322 
O     2.2347213    1.1404097   -0.0025734 
H     3.1939212    0.9967792   -0.0024165 
O     2.3146618   -1.1134994    0.0026091 
