Compound 041, distorted structure 02
 OpenBabel12102416353D

 13 13  0  0  0  0  0  0  0  0999 V2000
   -1.0530   -0.7410    0.2526 C   0  0  0  0  0  0  0  0  0  0  0  0
   -1.0566    0.7399   -0.2447 C   0  0  0  0  0  0  0  0  0  0  0  0
    0.3724    1.1871    0.1222 C   0  0  0  0  0  0  0  0  0  0  0  0
    1.2248   -0.0194    0.0129 O   0  0  0  0  0  0  0  0  0  0  0  0
    0.3944   -1.1898   -0.1208 C   0  0  0  0  0  0  0  0  0  0  0  0
   -1.7781   -1.3151   -0.2403 H   0  0  0  0  0  0  0  0  0  0  0  0
   -1.1638   -0.7872    1.3086 H   0  0  0  0  0  0  0  0  0  0  0  0
   -1.7790    1.3421    0.2443 H   0  0  0  0  0  0  0  0  0  0  0  0
   -1.1613    0.7981   -1.3125 H   0  0  0  0  0  0  0  0  0  0  0  0
    0.4091    1.4985    1.1815 H   0  0  0  0  0  0  0  0  0  0  0  0
    0.7791    1.9342   -0.5236 H   0  0  0  0  0  0  0  0  0  0  0  0
    0.7951   -1.9523    0.5231 H   0  0  0  0  0  0  0  0  0  0  0  0
    0.4465   -1.5323   -1.2083 H   0  0  0  0  0  0  0  0  0  0  0  0
  1  7  1  0  0  0  0
  2  3  1  0  0  0  0
  2  8  1  0  0  0  0
  2  1  1  0  0  0  0
  3 10  1  0  0  0  0
  4  3  1  0  0  0  0
  5  4  1  0  0  0  0
  5  1  1  0  0  0  0
  5 12  1  0  0  0  0
  6  1  1  0  0  0  0
  9  2  1  0  0  0  0
 11  3  1  0  0  0  0
 13  5  1  0  0  0  0
M  END
$$$$
