13
Compound 041, distorted structure 02
C    -1.0530422   -0.7409552    0.2525700 
C    -1.0565856    0.7398668   -0.2446541 
C     0.3723831    1.1871472    0.1222024 
O     1.2248088   -0.0193895    0.0129460 
C     0.3943706   -1.1897527   -0.1207523 
H    -1.7780542   -1.3150631   -0.2402668 
H    -1.1637747   -0.7872229    1.3086477 
H    -1.7790009    1.3421283    0.2442599 
H    -1.1612693    0.7980531   -1.3124513 
H     0.4090787    1.4985343    1.1815448 
H     0.7791041    1.9341564   -0.5235646 
H     0.7951114   -1.9522801    0.5230943 
H     0.4464834   -1.5322503   -1.2083020 
