13
Compound 041, distorted structure 03
C    -1.0232633   -0.7449296    0.2307967 
C    -1.0027178    0.6991829   -0.2655744 
C     0.3503906    1.1679257    0.1286166 
O     1.2223439    0.0312642   -0.0055498 
C     0.3494203   -1.1353731   -0.1542205 
H    -1.7984774   -1.3170086   -0.2084098 
H    -1.1548322   -0.7903307    1.3506178 
H    -1.7692366    1.3101181    0.2766807 
H    -1.2053461    0.7816307   -1.3514816 
H     0.3873437    1.4877441    1.1545945 
H     0.8114414    1.9283891   -0.5122964 
H     0.8055308   -1.9912368    0.4888446 
H     0.4028409   -1.5171999   -1.1958037 
