13
Compound 041 optimized with r2SCAN-3c
C    -1.0310301   -0.7302615    0.2315015 
C    -1.0311978    0.7300072   -0.2316552 
C     0.3833160    1.1659441    0.1449383 
O     1.2124098    0.0002814   -0.0004532 
C     0.3837544   -1.1658751   -0.1446284 
H    -1.8024699   -1.3396938   -0.2481198 
H    -1.1719758   -0.7840405    1.3175130 
H    -1.8029794    1.3392006    0.2477240 
H    -1.1717493    0.7837832   -1.3177185 
H     0.4246919    1.5134646    1.1895803 
H     0.7796296    1.9588446   -0.5002876 
H     0.7803580   -1.9579979    0.5013907 
H     0.4253545   -1.5144076   -1.1889102 
