13
Compound 005, distorted structure 02
C     1.2391396   -0.3718726   -0.3965309 
C     0.0248694   -0.3692982    0.0175698 
C    -1.2181615   -0.3767504    0.4121285 
H     1.5451976   -1.0670267   -1.1672177 
C     2.2976609    0.5202749    0.2002094 
H    -1.5414207   -1.0723744    1.1647478 
C    -2.3302147    0.5169322   -0.1742074 
H     1.9205664    1.1209370    0.9680096 
H     2.7447720    1.1546642   -0.5618901 
H     3.1320732   -0.1277144    0.6460965 
H    -3.1540728   -0.1387985   -0.6236610 
H    -1.9152249    1.1315294   -0.9928314 
H    -2.7831783    1.1044492    0.5874139 
