13
Compound 005, distorted structure 06
C     1.1739987   -0.3422808   -0.4417588 
C    -0.0266242   -0.4246470    0.0279426 
C    -1.2782159   -0.3653626    0.4410401 
H     1.4918753   -1.1435235   -1.2376631 
C     2.3709715    0.5033876    0.2709426 
H    -1.5815860   -1.1202741    1.2311766 
C    -2.3739054    0.5372446   -0.2782841 
H     1.8963645    1.1377429    1.0059327 
H     2.6975928    1.1559150   -0.4741658 
H     3.1328837   -0.1147521    0.6188116 
H    -3.1073149   -0.1361342   -0.6481446 
H    -1.9955612    1.1490867   -0.9338306 
H    -2.8495103    1.1549813    0.5167040 
