13
Compound 005, distorted structure 04
C     1.2730468   -0.4172459   -0.3914312 
C     0.0353155   -0.3859964   -0.0083083 
C    -1.2246995   -0.4288880    0.3941543 
H     1.4972609   -1.0406872   -1.2018628 
C     2.3491745    0.5239528    0.2392651 
H    -1.5483576   -1.1011398    1.1724999 
C    -2.3297039    0.5190280   -0.2442447 
H     1.9679437    1.0953965    0.9866200 
H     2.7200438    1.1183583   -0.6246704 
H     3.1658943   -0.1554659    0.6289805 
H    -3.1797236   -0.1400335   -0.5916131 
H    -1.9588631    1.1192875   -0.9972414 
H    -2.7911203    1.1302470    0.6176799 
