11
Compound 001, distorted structure 06
C     2.3687707    0.0284697   -0.0485765 
C     0.9913800   -0.3424803    0.0285857 
H     2.9811063   -0.3553717    0.9415093 
H     2.6344127    1.1420783    0.0030470 
H     2.9992860   -0.4860830   -0.9422517 
C    -0.0387928    0.4122305    0.0546437 
H     0.7675070   -1.4009983    0.0467558 
C    -1.4103598    0.0682071   -0.0431972 
H     0.1360596    1.5489369    0.0479741 
C    -2.5492871   -0.1961331   -0.0405338 
H    -3.6334344   -0.3993102    0.0170408 
