11
Compound 001, distorted structure 09
C     2.6039350    0.1287710    0.0445886 
C     0.8885663   -0.3671772    0.0441077 
H     3.0338918   -0.2515773    0.8820714 
H     2.6152524    1.1095205    0.1340865 
H     2.8524623   -0.4512177   -0.9344001 
C    -0.1272496    0.5283883    0.1585095 
H     0.8925158   -1.3990293    0.0980242 
C    -1.4172525    0.2668952    0.0058929 
H     0.0540926    1.5217454    0.1652420 
C    -2.5762832   -0.1466834   -0.0700894 
H    -3.7029430   -0.3003737   -0.1483785 
