11
Compound 001, distorted structure 08
C     2.4487763   -0.0008786    0.0690428 
C     0.9228054   -0.4247048    0.0047464 
H     2.9054704   -0.3908531    0.8036126 
H     2.6356921    1.1338033    0.0114248 
H     2.9840464   -0.3879756   -0.8846279 
C     0.0184375    0.4146406    0.0090712 
H     0.7915933   -1.4055870   -0.0133578 
C    -1.4139434    0.1208208   -0.0235944 
H     0.1409462    1.6083782   -0.0289055 
C    -2.5266225   -0.2022619   -0.0589481 
H    -3.6494790   -0.4650810   -0.0236711 
