17
Compound 009, distorted structure 02
C    -0.5592323    1.2095949    0.5261959 
C     0.5679464    1.2277421   -0.5200113 
C     1.7508155    0.2494733   -0.1479600 
H     1.0182274    2.2523340   -0.6261917 
H     0.1711912    0.9573397   -1.4943538 
C     1.2179552   -1.0313966    0.3622791 
H     2.3136334    0.7133374    0.6442888 
H     2.4245269    0.1554671   -0.9739720 
C    -0.0005245   -1.3850260   -0.0130115 
C    -1.1853757   -1.0406893   -0.3862279 
C    -1.7228382    0.2733616    0.1720990 
H    -2.4275558    0.1477982    1.0132115 
H    -2.3341133    0.7158816   -0.6644527 
H    -0.9963503    2.2239815    0.5834006 
H    -0.1979112    0.9657163    1.4990490 
H    -1.7412378   -1.5717985   -1.1917921 
H     1.7529502   -1.5897408    1.1656062 
