17
Compound 009, distorted structure 09
C    -0.5520763    1.2996602    0.5469672 
C     0.5435440    1.2012125   -0.5899812 
C     1.6482665    0.2273638   -0.1102502 
H     1.0491777    2.3206394   -0.5939434 
H     0.2594663    0.9074829   -1.5191420 
C     1.2300429   -1.1056540    0.2982984 
H     2.4008965    0.6879387    0.6899652 
H     2.3628281    0.1806605   -1.0021507 
C     0.0755579   -1.4455339    0.0091790 
C    -1.1411314   -1.1085888   -0.3587245 
C    -1.7895381    0.1945749    0.1341486 
H    -2.4839835    0.1740942    0.9066104 
H    -2.2465670    0.7915855   -0.6373430 
H    -1.0191059    2.3024861    0.5919749 
H    -0.2583317    0.9320121    1.4216606 
H    -1.7501774   -1.6329995   -1.2507974 
H     1.7040982   -1.4953000    1.2590876 
