17
Compound 009, distorted structure 06
C    -0.5703892    1.2771108    0.4813900 
C     0.5700324    1.2089724   -0.4732198 
C     1.7778101    0.2650505   -0.0930199 
H     0.9603041    2.3004191   -0.6251748 
H     0.1288654    1.0197700   -1.4762430 
C     1.1544930   -1.0254179    0.4434437 
H     2.3132511    0.7596924    0.6959894 
H     2.4363173    0.1350372   -1.0323675 
C    -0.0265777   -1.3533733    0.0445916 
C    -1.1819710   -1.0874761   -0.3730116 
C    -1.6754791    0.3140910    0.2166583 
H    -2.4606061    0.1444900    1.0576441 
H    -2.3170547    0.6738748   -0.7214465 
H    -0.9420892    2.2884739    0.5775922 
H    -0.1180923    0.9871449    1.5419344 
H    -1.7278443   -1.5685001   -1.1733832 
H     1.7143017   -1.5114663    1.1671738 
