15
Compound 080, distorted structure 05
C    -1.1678672    0.7116538    0.0562103 
SI    0.4843025    0.0571699   -0.0572251 
C     2.0085937    1.0760159   -0.0202247 
H     2.5209575    0.9470455    0.8294003 
H     1.6478943    2.1136156    0.0496274 
H     2.5343971    0.9895077   -0.8689369 
C     0.7563705   -1.7951360   -0.0639749 
H    -0.1636198   -2.3970731   -0.0351165 
H     1.3823270   -2.0907361    0.8536971 
H     1.3439973   -2.1272067   -0.8795058 
C    -2.4230530    0.0095828   -0.0257139 
H    -1.2606425    1.7311407   -0.0509329 
H    -2.3353296   -1.1296887    0.0380721 
H    -3.0785357    0.1896795   -0.9028719 
H    -3.0354360    0.2140216    0.8928452 
