15
Compound 080, distorted structure 01
C    -1.1499343    0.7061628   -0.0179039 
SI    0.4280102    0.0386369   -0.0007839 
C     1.9534029    1.1139279   -0.0112452 
H     2.5897856    0.9273803    0.8923042 
H     1.6685330    2.1766176    0.0201781 
H     2.5634041    0.9281389   -0.8839056 
C     0.7890857   -1.8107189    0.0075168 
H    -0.1751275   -2.3939180   -0.0210618 
H     1.3366180   -2.1082945    0.8833177 
H     1.3443017   -2.0935971   -0.8947247 
C    -2.4730085   -0.0093541   -0.0000631 
H    -1.2157259    1.8002759   -0.0219470 
H    -2.3344960   -1.1013845    0.0215183 
H    -3.0830252    0.2161162   -0.8816326 
H    -3.0613906    0.2497476    0.8972948 
