15
Compound 080, distorted structure 04
C    -1.1093150    0.6942867   -0.0501575 
SI    0.4575671   -0.0079031    0.0448035 
C     1.9935918    1.1229290    0.0198016 
H     2.5438900    0.9704765    0.9299817 
H     1.6815835    2.1247199    0.0288569 
H     2.6173801    0.9281376   -0.8692513 
C     0.7308791   -1.7737294    0.0142647 
H    -0.1781589   -2.3452094    0.0240130 
H     1.3795807   -2.0810271    0.9079130 
H     1.3798145   -2.0840546   -0.8963619 
C    -2.4233242   -0.0557671    0.0435640 
H    -1.1755992    1.7981160    0.0373938 
H    -2.3386433   -1.1250854   -0.0370145 
H    -3.1046745    0.2757155   -0.9140626 
H    -3.1095122    0.2629772    0.8420608 
