14
Compound 006, distorted structure 08
C    -0.7378423    0.7593918    0.3630811 
C    -0.7461035   -0.8320850    0.4082672 
C     0.6847328   -1.1891597    0.1052499 
C     1.4134212    0.0637819   -0.2005552 
H     0.7724567   -1.9041557   -0.8333975 
H     1.1521535   -1.7436568    0.7946516 
C     0.7421408    1.1276760    0.1075455 
C    -1.3972840   -0.0325404   -0.6500101 
H    -1.3020001    1.2983441    1.1869089 
H    -1.1405893    0.0669230   -1.6281619 
H    -2.5361933    0.0499680   -0.5343848 
H    -1.1989050   -1.2829596    1.1010723 
H     2.5343245    0.2343526   -0.5992154 
H     0.9961349    2.1379274   -0.0511892 
