14
Compound 006 optimized with r2SCAN-3c
C    -0.6926165    0.7575310    0.4322466 
C    -0.6751029   -0.7625102    0.3892376 
C     0.7451853   -1.1920641    0.0330379 
C     1.4593521    0.1160983   -0.2218148 
H     0.7707860   -1.8539175   -0.8436073 
H     1.2168310   -1.7440989    0.8579944 
C     0.6811717    1.1704323    0.0367007 
C    -1.4565086    0.0055709   -0.6376536 
H    -1.2463790    1.3132011    1.1834886 
H    -1.0687139    0.0601379   -1.6519336 
H    -2.5392689   -0.0242190   -0.5547576 
H    -1.2315073   -1.3374282    1.1226197 
H     2.4790454    0.1673005   -0.5909868 
H     0.9810544    2.2090936   -0.0621248 
