20
Compound 063, distorted structure 01
C    -1.5667740    0.8048604   -1.2385248 
LI    0.5484219    1.0729738   -0.8295155 
LI   -1.0807345    0.5292715    0.8510503 
C     0.7863703    1.5856396    1.2735160 
C     1.5872462   -0.8122458   -1.2392508 
LI    1.0845295   -0.5731460    0.8361884 
LI   -0.5349706   -1.0497766   -0.8470222 
C    -0.7979577   -1.6001412    1.2544199 
H    -0.1028729   -2.0731090    1.9209172 
H     0.0836307    2.0753932    1.9589131 
H     1.2747686   -1.6087086   -1.9545136 
H    -2.0518248    0.1143643   -1.9279789 
H    -1.6234045   -1.3035936    1.9421662 
H    -1.2710204   -2.4352184    0.7056097 
H     2.4473231   -1.2341986   -0.7255167 
H     2.0594710   -0.0987380   -1.9254921 
H     1.2412211    2.4286181    0.7498728 
H     1.6192848    1.2687581    1.9673771 
H    -1.2604486    1.6524148   -1.9326212 
H    -2.4467634    1.2559028   -0.7152894 
