20
Compound 063, distorted structure 09
C    -1.5209566    0.8687424   -1.3424206 
LI    0.5975645    1.0314810   -0.8194273 
LI   -1.0158329    0.5600831    0.8188425 
C     0.7242676    1.5184143    1.2499801 
C     1.6239453   -0.8379271   -1.3169712 
LI    0.9760447   -0.5267284    0.8042798 
LI   -0.6064203   -1.0134184   -0.9237299 
C    -0.7201897   -1.5698443    1.2922567 
H    -0.1785005   -2.0242190    1.8641756 
H     0.1777963    2.0404755    2.0199623 
H     1.2090661   -1.6926520   -1.9636561 
H    -2.0815413    0.1395485   -1.9030325 
H    -1.5925054   -1.2376408    1.8872835 
H    -1.2834347   -2.4500034    0.7005159 
H     2.4033813   -1.2509105   -0.7964738 
H     2.1155514   -0.0015552   -1.9716990 
H     1.2882840    2.5172763    0.7275319 
H     1.6175071    1.1971105    1.8754038 
H    -1.2914044    1.7239363   -1.8490395 
H    -2.4101465    1.2262694   -0.8139772 
