20
Compound 063, distorted structure 04
C    -1.5846906    0.8079731   -1.2979685 
LI    0.5471314    1.0218171   -0.8067215 
LI   -1.1121695    0.6151755    0.8873029 
C     0.8255336    1.6244597    1.3082836 
C     1.5692040   -0.7433602   -1.2264168 
LI    1.0919532   -0.5111116    0.8961408 
LI   -0.4795222   -1.0888846   -0.8510654 
C    -0.8194390   -1.5713514    1.2617907 
H    -0.1307764   -2.0513417    1.9207934 
H     0.1297334    2.0969472    1.9973571 
H     1.3575752   -1.6316085   -1.9244751 
H    -2.0737817    0.1152799   -1.9560999 
H    -1.5726553   -1.2807956    1.9615481 
H    -1.2010367   -2.3924562    0.6403565 
H     2.4266637   -1.2384482   -0.6634790 
H     2.1383653   -0.1202569   -1.8599164 
H     1.2676627    2.3961719    0.7999759 
H     1.5803241    1.2139528    1.9302564 
H    -1.2122415    1.6218569   -2.0084721 
H    -2.5071605    1.3198343   -0.7134982 
