20
Compound 063, distorted structure 06
C    -1.5023373    0.8277958   -1.2385789 
LI    0.4580492    1.0120587   -0.7663844 
LI   -1.0212862    0.4973355    0.8867795 
C     0.7943141    1.5519609    1.3154150 
C     1.5598173   -0.8131380   -1.3255832 
LI    1.1009917   -0.4960268    0.8937909 
LI   -0.6201098   -1.0058169   -0.9221793 
C    -0.8489730   -1.5578191    1.2250262 
H    -0.1151072   -2.0880801    1.9499713 
H     0.0120040    1.9833812    2.0092664 
H     1.3333158   -1.6986293   -1.9565810 
H    -2.0288680    0.0870756   -1.9705983 
H    -1.6433599   -1.3500695    1.9530408 
H    -1.3004984   -2.5274775    0.6302072 
H     2.5230412   -1.2005395   -0.7395331 
H     2.0243154   -0.0017839   -1.8525312 
H     1.3118414    2.5285263    0.7999370 
H     1.6702802    1.2185662    1.8738421 
H    -1.1965387    1.6274703   -1.9445887 
H    -2.3664988    1.3223269   -0.6680272 
