10
Compound 029, distorted structure 02
C     1.9109433    0.0313524    0.0168349 
O     0.6031276    0.7471089   -0.0115972 
C    -0.4363939   -0.0771007   -0.0089080 
O    -0.3941017   -1.2683649   -0.0044841 
N    -1.5901011    0.6772806   -0.1357745 
H    -2.4545921    0.1463694    0.1039027 
H    -1.5795812    1.6221804    0.0822816 
H     2.6565854    0.7972012   -0.0133919 
H     1.9822278   -0.5655538   -0.9083611 
H     1.9740696   -0.5831599    0.8992606 
