10
Compound 029, distorted structure 03
C     1.9388688    0.0663909    0.0027385 
O     0.5806031    0.7281454    0.0248143 
C    -0.4845889   -0.0904134    0.0087742 
O    -0.4223832   -1.2882856   -0.0525491 
N    -1.5614688    0.7136834   -0.1170003 
H    -2.4171194    0.1764902    0.1536367 
H    -1.5190840    1.6581109    0.1282173 
H     2.6728967    0.8184454   -0.0298501 
H     1.9966113   -0.5485431   -0.9153255 
H     1.9784765   -0.6253111    0.8583725 
