Compound 029, distorted structure 06
 OpenBabel12102416353D

 10  9  0  0  0  0  0  0  0  0999 V2000
    1.9335    0.0439   -0.0599 C   0  0  0  0  0  0  0  0  0  0  0  0
    0.6583    0.6980   -0.0532 O   0  0  0  0  0  0  0  0  0  0  0  0
   -0.4082   -0.1252   -0.0488 C   0  0  0  0  0  0  0  0  0  0  0  0
   -0.4289   -1.2539   -0.0518 O   0  0  0  0  0  0  0  0  0  0  0  0
   -1.5850    0.6159   -0.1452 N   0  0  0  0  0  0  0  0  0  0  0  0
   -2.4175    0.2376    0.0535 H   0  0  0  0  0  0  0  0  0  0  0  0
   -1.5612    1.6650    0.1312 H   0  0  0  0  0  0  0  0  0  0  0  0
    2.6215    0.8592   -0.0016 H   0  0  0  0  0  0  0  0  0  0  0  0
    1.9568   -0.5432   -0.9509 H   0  0  0  0  0  0  0  0  0  0  0  0
    1.9522   -0.5493    0.9497 H   0  0  0  0  0  0  0  0  0  0  0  0
  1  2  1  0  0  0  0
  1  8  1  0  0  0  0
  1 10  1  0  0  0  0
  2  3  1  0  0  0  0
  4  3  2  0  0  0  0
  5  3  1  0  0  0  0
  5  6  1  0  0  0  0
  5  7  1  0  0  0  0
  9  1  1  0  0  0  0
M  END
$$$$
