16
Compound 085 optimized with r2SCAN-3c
P    -0.4419088   -0.0146502   -0.5460517 
C     1.0349972   -0.6965944    0.3778531 
C    -0.6316581    1.6106614    0.3456168 
C    -1.7778648   -0.9677987    0.3347430 
H    -1.7258961   -2.0238023    0.0505204 
H    -2.7602131   -0.5905597    0.0329720 
H    -1.6899039   -0.8902127    1.4253502 
H    -1.5923218    2.0614390    0.0759632 
H     0.1545592    2.3061727    0.0367564 
H    -0.5922260    1.4889039    1.4353117 
C     2.3427844   -0.0002445   -0.0011161 
H     1.0970139   -1.7652233    0.1333963 
H     0.8574402   -0.6245462    1.4604885 
H     3.1946490   -0.4601445    0.5108667 
H     2.3271174    1.0591394    0.2753620 
H     2.5239319   -0.0605144   -1.0793233 
