16
Compound 085, distorted structure 07
P    -0.3817111    0.0421634   -0.6222517 
C     1.0822984   -0.6822723    0.4271165 
C    -0.5841314    1.5468956    0.3696783 
C    -1.8491183   -0.9228887    0.3729258 
H    -1.6757725   -2.0316295    0.1179703 
H    -2.6994684   -0.5957097    0.0218448 
H    -1.6181149   -0.9355430    1.5060565 
H    -1.5820961    2.0088071    0.0859236 
H     0.2208891    2.3579379    0.0436659 
H    -0.5519854    1.4733357    1.3568789 
C     2.2890131    0.0234569   -0.0208965 
H     1.1643868   -1.7607650    0.1126654 
H     0.8931338   -0.5772740    1.4438936 
H     3.1865512   -0.4825730    0.4477900 
H     2.3505550    1.0917824    0.3260454 
H     2.4596275   -0.0559954   -1.0315219 
