16
Compound 085, distorted structure 02
P    -0.4215456   -0.0461902   -0.5268023 
C     1.0528730   -0.7005561    0.3625018 
C    -0.6159842    1.6029819    0.3728614 
C    -1.7689120   -0.9465281    0.3293901 
H    -1.7252593   -2.0221571    0.0293557 
H    -2.7424493   -0.5685616    0.0482549 
H    -1.6591616   -0.8613817    1.4096392 
H    -1.6162983    2.0873061    0.0935870 
H     0.1663480    2.3037002    0.0656050 
H    -0.5637581    1.4959544    1.4674618 
C     2.3394336    0.0247988    0.0220029 
H     1.1142559   -1.7619024    0.1453467 
H     0.8375959   -0.6499375    1.4534992 
H     3.1646056   -0.4900758    0.4799303 
H     2.3286803    1.0866213    0.2441750 
H     2.5162466   -0.0296145   -1.0655241 
