16
Compound 085, distorted structure 09
P    -0.4310308   -0.0231167   -0.6016007 
C     1.0495387   -0.7603584    0.2975167 
C    -0.6986401    1.6060965    0.3088300 
C    -1.7923838   -0.8819973    0.2553248 
H    -1.6444013   -1.9895005    0.0710552 
H    -2.8314110   -0.5423435    0.0617904 
H    -1.6264380   -0.9045077    1.4155189 
H    -1.5430181    2.0418409    0.1079343 
H     0.0919227    2.3892860   -0.0202869 
H    -0.5521318    1.5382153    1.4441582 
C     2.3867969    0.0238401    0.0806765 
H     1.0820715   -1.7043019    0.1827559 
H     0.9171814   -0.5690415    1.5346524 
H     3.2220585   -0.3909023    0.4749170 
H     2.3453306    0.9904033    0.2721364 
H     2.5683236   -0.0627530   -1.0395246 
