8
Compound 023, distorted structure 05
C    -0.1989826   -1.2688081   -0.0718112 
C    -1.0521378   -0.2041706    0.0274430 
O    -0.5236815    0.9617220   -0.0179238 
N     0.7977801    0.7723426    0.0601072 
C     1.0737668   -0.5705991    0.0739711 
H    -0.2504839   -2.3613151   -0.0591616 
H    -2.1605459   -0.1550080    0.0163610 
H     2.0756182   -0.8484390    0.0515690 
