Compound 023, distorted structure 03
 OpenBabel12102416353D

  8  8  0  0  0  0  0  0  0  0999 V2000
   -0.1583   -1.2177   -0.0260 C   0  0  0  0  0  0  0  0  0  0  0  0
   -1.1351   -0.2517   -0.0035 C   0  0  0  0  0  0  0  0  0  0  0  0
   -0.5673    0.9940   -0.0379 O   0  0  0  0  0  0  0  0  0  0  0  0
    0.8402    0.8049    0.0110 N   0  0  0  0  0  0  0  0  0  0  0  0
    1.0769   -0.5277   -0.0320 C   0  0  0  0  0  0  0  0  0  0  0  0
   -0.3524   -2.2396   -0.0389 H   0  0  0  0  0  0  0  0  0  0  0  0
   -2.1876   -0.2047   -0.0208 H   0  0  0  0  0  0  0  0  0  0  0  0
    2.0363   -0.8464   -0.0199 H   0  0  0  0  0  0  0  0  0  0  0  0
  1  2  2  0  0  0  0
  3  2  1  0  0  0  0
  3  4  1  0  0  0  0
  5  1  1  0  0  0  0
  5  8  1  0  0  0  0
  5  4  2  0  0  0  0
  6  1  1  0  0  0  0
  7  2  1  0  0  0  0
M  END
$$$$
