8
Compound 023, distorted structure 02
C    -0.1810085   -1.1765506    0.0041897 
C    -1.1450794   -0.2191855   -0.0006199 
O    -0.5395933    1.0024576    0.0253618 
N     0.8670287    0.8060702    0.0309615 
C     1.0332375   -0.5196674   -0.0325000 
H    -0.3438152   -2.2862804    0.0042612 
H    -2.1731596   -0.2016884   -0.0096845 
H     2.0471128   -0.8972473    0.0056373 
