Compound 023, distorted structure 01
 OpenBabel12102416353D

  8  8  0  0  0  0  0  0  0  0999 V2000
   -0.1928   -1.2147   -0.0176 C   0  0  0  0  0  0  0  0  0  0  0  0
   -1.1054   -0.2423    0.0135 C   0  0  0  0  0  0  0  0  0  0  0  0
   -0.5283    0.9864    0.0134 O   0  0  0  0  0  0  0  0  0  0  0  0
    0.8836    0.8327   -0.0241 N   0  0  0  0  0  0  0  0  0  0  0  0
    1.0261   -0.4816    0.0184 C   0  0  0  0  0  0  0  0  0  0  0  0
   -0.3325   -2.2898   -0.0151 H   0  0  0  0  0  0  0  0  0  0  0  0
   -2.1919   -0.2274   -0.0060 H   0  0  0  0  0  0  0  0  0  0  0  0
    2.0485   -0.8525   -0.0216 H   0  0  0  0  0  0  0  0  0  0  0  0
  1  6  1  0  0  0  0
  1  2  2  0  0  0  0
  1  5  1  0  0  0  0
  3  2  1  0  0  0  0
  4  3  1  0  0  0  0
  4  5  2  0  0  0  0
  7  2  1  0  0  0  0
  8  5  1  0  0  0  0
M  END
$$$$
