8
Compound 023 optimized with r2SCAN-3c
C    -0.1773169   -1.2125173    0.0000305 
C    -1.1163119   -0.2333160   -0.0000863 
O    -0.5288258    0.9770672   -0.0001420 
N     0.8591372    0.8059718    0.0001838 
C     1.0447572   -0.4916320    0.0000129 
H    -0.3283172   -2.2804948    0.0003057 
H    -2.1970906   -0.2336865    0.0000998 
H     2.0579517   -0.8751839   -0.0000411 
