15
Compound 018, distorted structure 06
N    -1.9840804   -0.1000094   -0.1147923 
C    -0.7060328   -0.6944305    0.3162192 
C     0.4670600    0.0141689   -0.4065825 
H    -0.6115246   -1.8333277    0.0132123 
H    -0.5390160   -0.6086598    1.4809488 
C     1.7906609   -0.7495342    0.0534128 
H     1.8456138   -1.7428274   -0.4117375 
H     1.8869042   -0.6371367    1.1865960 
H     2.5744725   -0.1739175   -0.4151495 
N     0.4636865    1.3562692    0.1478002 
H     0.3572578   -0.0555499   -1.4281737 
H    -2.7222613   -0.4654429    0.3983808 
H    -2.2479459   -0.3806768   -1.0111271 
H    -0.4137223    1.8143978    0.0400964 
H     1.2471278    1.8751904   -0.4481140 
