15
Compound 018, distorted structure 05
N    -1.9534628   -0.0533702   -0.1420159 
C    -0.6867939   -0.6390765    0.2901450 
C     0.5244123   -0.0009118   -0.3853698 
H    -0.6149889   -1.7992592    0.1026792 
H    -0.5705736   -0.6075544    1.4364988 
C     1.8484689   -0.7122127   -0.0281763 
H     1.8371904   -1.7489165   -0.3034725 
H     1.9415693   -0.6345605    1.0771574 
H     2.6974026   -0.2232918   -0.4759134 
N     0.5388976    1.3788040    0.1915481 
H     0.3034576   -0.1001922   -1.4453180 
H    -2.7258079   -0.3472112    0.4804394 
H    -2.1508347   -0.2774225   -1.0336591 
H    -0.4381462    1.7565805   -0.0427642 
H     1.2225301    1.9236917   -0.4654661 
