15
Compound 018, distorted structure 09
N    -1.9300209   -0.1514434    0.0126660 
C    -0.6821309   -0.7385872    0.4025100 
C     0.4512807    0.0127215   -0.4483306 
H    -0.7024448   -1.8340832    0.0865619 
H    -0.5117533   -0.5239677    1.4828348 
C     1.7170153   -0.7071357   -0.0042377 
H     1.7893956   -1.6062964   -0.2243881 
H     2.0031211   -0.6279871    1.1595341 
H     2.5337130   -0.1020594   -0.4718500 
N     0.4492351    1.3623013    0.2295061 
H     0.3533975   -0.0933955   -1.4797522 
H    -2.8485951   -0.4861677    0.4831319 
H    -2.1339870   -0.3763152   -1.1227042 
H    -0.4579688    1.8022534    0.0727097 
H     1.1169693    1.9336435   -0.3999048 
