13
Compound 082, distorted structure 07
O    -0.4089089   -0.8418357    1.4535550 
P    -0.3681057    0.0502759    0.1586854 
O     1.1414871    0.5520521   -0.2350492 
C    -1.3933786    1.5544491    0.1850003 
O    -0.7465684   -0.8245731   -1.0198195 
H    -0.8717474    2.1812170    0.9656623 
H    -2.4013753    1.2339741    0.4669021 
H    -1.2502810    2.0143968   -0.7418268 
H    -1.1629434   -1.7384590   -0.7902828 
C     2.2844007   -0.1832503   -0.3471786 
H     3.1919233    0.3051363   -0.5700463 
H     2.1709796   -1.0264761   -1.1218047 
H     2.2694184   -0.7667700    0.5966418 
