13
Compound 082, distorted structure 06
O    -0.3815517   -0.7979790    1.4374046 
P    -0.3097394    0.0299046    0.2949992 
O     1.0837376    0.6369480   -0.1872459 
C    -1.3164368    1.6050319    0.2269118 
O    -0.8028105   -0.6719136   -1.0748803 
H    -0.9062760    2.2454764    0.9796101 
H    -2.3596985    1.3594463    0.4304944 
H    -1.3623045    2.0831327   -0.7868002 
H    -1.1281577   -1.5654495   -0.7416392 
C     2.3116500   -0.2856763   -0.2360021 
H     3.1097915    0.4507382   -0.5249372 
H     2.1548416   -0.9972766   -1.1723569 
H     2.3632981   -0.7237030    0.6595808 
