Compound 032, distorted structure 04
 OpenBabel12102416353D

 11 11  0  0  0  0  0  0  0  0999 V2000
   -1.2052    0.0331   -0.0373 O   0  0  0  0  0  0  0  0  0  0  0  0
   -0.4089    1.1107    0.0076 C   0  0  0  0  0  0  0  0  0  0  0  0
    0.9940    0.6594    0.0306 C   0  0  0  0  0  0  0  0  0  0  0  0
    1.1031   -0.6804    0.0716 C   0  0  0  0  0  0  0  0  0  0  0  0
   -0.3673   -1.1909    0.0299 C   0  0  0  0  0  0  0  0  0  0  0  0
   -0.6423   -1.7782   -0.9437 H   0  0  0  0  0  0  0  0  0  0  0  0
   -0.6202   -1.7659    0.8555 H   0  0  0  0  0  0  0  0  0  0  0  0
    1.9477   -1.3684   -0.0495 H   0  0  0  0  0  0  0  0  0  0  0  0
    1.8660    1.2839   -0.0327 H   0  0  0  0  0  0  0  0  0  0  0  0
   -0.5973    1.7564   -0.9283 H   0  0  0  0  0  0  0  0  0  0  0  0
   -0.6120    1.8253    0.8378 H   0  0  0  0  0  0  0  0  0  0  0  0
  1  2  1  0  0  0  0
  1  5  1  0  0  0  0
  2  3  1  0  0  0  0
  2 11  1  0  0  0  0
  3  4  2  0  0  0  0
  5  4  1  0  0  0  0
  5  7  1  0  0  0  0
  6  5  1  0  0  0  0
  8  4  1  0  0  0  0
  9  3  1  0  0  0  0
 10  2  1  0  0  0  0
M  END
$$$$
