11
Compound 032, distorted structure 06
O    -1.0995745    0.0495077   -0.0969393 
C    -0.2603202    1.2275018    0.0826775 
C     1.1094739    0.6608539    0.0938833 
C     1.0776848   -0.6833782    0.0672813 
C    -0.3929590   -1.2796026    0.0287806 
H    -0.4757614   -1.8127079   -0.8627629 
H    -0.6462095   -1.7344211    0.8399771 
H     1.9072681   -1.3970430    0.0828258 
H     2.0039731    1.3807493    0.0458119 
H    -0.5733128    1.7889121   -0.7819699 
H    -0.6449940    1.8401326    0.9837338 
