11
Compound 032 optimized with r2SCAN-3c
O    -1.1753971   -0.0000115    0.0001653 
C    -0.3520357    1.1748279    0.0002384 
C     1.0554031    0.6637782    0.0000476 
C     1.0554177   -0.6637516   -0.0001250 
C    -0.3520112   -1.1748325    0.0002330 
H    -0.5775050   -1.7863444   -0.8892331 
H    -0.5771379   -1.7861066    0.8899703 
H     1.9252134   -1.3111345   -0.0001768 
H     1.9251989    1.3111614   -0.0001468 
H    -0.5775427    1.7862985   -0.8892464 
H    -0.5771811    1.7861318    0.8899572 
