11
Compound 032, distorted structure 05
O    -1.2384364   -0.0397602   -0.0132789 
C    -0.3856905    1.2133457   -0.0388215 
C     1.0893693    0.6449552    0.0599097 
C     1.0126716   -0.5906162    0.0312300 
C    -0.3595303   -1.2014899   -0.0095528 
H    -0.6420724   -1.7298110   -0.8903383 
H    -0.5636520   -1.7731697    0.8677670 
H     1.9552376   -1.2851212   -0.0090975 
H     1.9892810    1.3232554   -0.0162932 
H    -0.6323669    1.8611006   -0.9322785 
H    -0.5676993    1.8436386    0.8149807 
