11
Compound 032, distorted structure 02
O    -1.1830378    0.0256443   -0.0249533 
C    -0.3164111    1.1898948   -0.0236520 
C     1.0208871    0.6465482   -0.0025392 
C     1.0543576   -0.6800786    0.0195105 
C    -0.3598035   -1.2007227   -0.0319102 
H    -0.6085002   -1.8133487   -0.9185109 
H    -0.6005183   -1.7775982    0.9244945 
H     1.9185352   -1.3403765   -0.0077330 
H     1.9356485    1.2886817   -0.0351918 
H    -0.5799569    1.7524532   -0.8928095 
H    -0.6048214    1.7787470    0.8600031 
