11
Compound 032, distorted structure 09
O    -1.1745652   -0.0443618    0.0767259 
C    -0.3697365    1.1053036   -0.0031024 
C     1.1061836    0.5875928    0.0365517 
C     1.1258129   -0.7219809    0.0322080 
C    -0.4243021   -1.2554760   -0.0925169 
H    -0.6530688   -1.7191617   -0.8375308 
H    -0.5977762   -1.7081445    0.9756683 
H     1.9182208   -1.2448948    0.0699548 
H     2.0103316    1.2843448    0.0591516 
H    -0.4881194    1.8056931   -0.8954765 
H    -0.6619632    1.7271340    0.9458885 
