9
Compound 025, distorted structure 02
C    -1.0263187    0.6846050    0.0348640 
C     0.2809542    1.1100096    0.0416499 
O     1.1316282    0.0197281    0.0315477 
C     0.3369266   -1.0953648   -0.0087159 
C    -1.0106325   -0.7018428    0.0178787 
H    -1.8050424    1.4058658    0.0040869 
H     0.8189179    2.0244019    0.0338549 
H     0.8154427   -2.0684549   -0.0188663 
H    -1.8350125   -1.3545335   -0.0195652 
