9
Compound 025, distorted structure 05
C    -0.9569761    0.7124721   -0.0096841 
C     0.3342573    1.0472290    0.0199978 
O     1.1131787    0.0218298   -0.0281582 
C     0.2604042   -1.0579549    0.0465004 
C    -0.9725097   -0.7738827   -0.0245282 
H    -1.8598479    1.4179069   -0.0392257 
H     0.8358720    2.0900846    0.0513493 
H     0.7983523   -2.0389931    0.0171760 
H    -1.8674402   -1.3236666    0.0413541 
