Compound 025, distorted structure 05
 OpenBabel12102416353D

  9  9  0  0  0  0  0  0  0  0999 V2000
   -0.9570    0.7125   -0.0097 C   0  0  0  0  0  0  0  0  0  0  0  0
    0.3343    1.0472    0.0200 C   0  0  0  0  0  0  0  0  0  0  0  0
    1.1132    0.0218   -0.0282 O   0  0  0  0  0  0  0  0  0  0  0  0
    0.2604   -1.0580    0.0465 C   0  0  0  0  0  0  0  0  0  0  0  0
   -0.9725   -0.7739   -0.0245 C   0  0  0  0  0  0  0  0  0  0  0  0
   -1.8598    1.4179   -0.0392 H   0  0  0  0  0  0  0  0  0  0  0  0
    0.8359    2.0901    0.0513 H   0  0  0  0  0  0  0  0  0  0  0  0
    0.7984   -2.0390    0.0172 H   0  0  0  0  0  0  0  0  0  0  0  0
   -1.8674   -1.3237    0.0414 H   0  0  0  0  0  0  0  0  0  0  0  0
  1  2  2  0  0  0  0
  2  7  1  0  0  0  0
  3  2  1  0  0  0  0
  3  4  1  0  0  0  0
  5  1  1  0  0  0  0
  5  9  1  0  0  0  0
  5  4  2  0  0  0  0
  6  1  1  0  0  0  0
  8  4  1  0  0  0  0
M  END
$$$$
