18
Compound 056, distorted structure 01
C    -1.7602090    0.8787234   -0.1744053 
C    -2.0481244   -0.6166269    0.0069950 
O    -0.7245072   -1.2132157   -0.0499538 
H    -2.6733642   -1.0285140   -0.7795411 
H    -2.4905413   -0.8133130    1.0032137 
C     0.2447558   -0.1553664    0.0705560 
O    -0.4644749    0.9952824    0.4510572 
H    -2.4364825    1.5298304    0.3422920 
H    -1.7079267    1.1229270   -1.2300326 
C     1.1836136    0.0432267   -1.1138244 
C     2.3284133    0.2591695   -0.0914071 
H     0.9633459    0.8714991   -1.7963696 
H     1.3111607   -0.8785021   -1.6773570 
C     1.4454150   -0.3954825    1.0089049 
H     2.5019588    1.3397870    0.1045170 
H     3.2869139   -0.2118709   -0.2927157 
H     1.4001917    0.0809106    1.9904572 
H     1.6314723   -1.4792984    1.0952512 
