18
Compound 056, distorted structure 02
C    -1.7311305    0.8467634   -0.1576798 
C    -2.0112861   -0.6284216    0.0464310 
O    -0.7126398   -1.1845394   -0.0396916 
H    -2.6600342   -1.0205145   -0.7605734 
H    -2.4631653   -0.7978804    1.0037348 
C     0.2234666   -0.1826632    0.0478608 
O    -0.4556307    0.9996457    0.4334283 
H    -2.4644875    1.5519731    0.3583404 
H    -1.6962035    1.1222403   -1.2383400 
C     1.1686198    0.0531359   -1.1310142 
C     2.3472107    0.2612897   -0.0620443 
H     0.9555493    0.8824769   -1.8364879 
H     1.3066511   -0.8742829   -1.6843080 
C     1.4234321   -0.4119735    0.9925631 
H     2.4979584    1.3016653    0.1054053 
H     3.3147810   -0.2136248   -0.3250716 
H     1.3755615    0.0821095    1.9651089 
H     1.6412778   -1.4797890    1.0715108 
