18
Compound 056, distorted structure 08
C    -1.7595823    0.8052550   -0.1557389 
C    -2.0545539   -0.6586483    0.0431735 
O    -0.7014648   -1.1959466    0.0382916 
H    -2.6308303   -1.0482946   -0.7177821 
H    -2.4887891   -0.8588776    0.9797907 
C     0.2683128   -0.2252988    0.0694668 
O    -0.5491584    0.9550147    0.5234878 
H    -2.3906706    1.5529545    0.3491783 
H    -1.6635370    1.1574408   -1.1751427 
C     1.1423853   -0.0196005   -1.1574109 
C     2.3434702    0.3148806   -0.0514105 
H     1.0016845    0.9334384   -1.8907652 
H     1.3953898   -0.8200555   -1.6513943 
C     1.5189923   -0.3480078    1.0823558 
H     2.5687213    1.3604251    0.1599479 
H     3.3680045   -0.2523586   -0.2390549 
H     1.3828351    0.1046837    2.0244021 
H     1.6693441   -1.4175213    1.0461096 
