20
Compound 065, distorted structure 07
N     0.6912688   -0.4432398   -0.1447258 
B    -0.7595007    0.5353213    0.2190030 
C     1.5157811    0.2859354   -1.1630854 
H     0.8616140    0.2952785   -2.1879439 
H     2.4755319   -0.2898546   -1.4263538 
H     1.8039963    1.2776226   -0.8719442 
C     1.5136072   -0.5341874    0.9922795 
H     0.3504662   -1.2757736   -0.5576449 
H     1.7471786    0.4008127    1.4479126 
H     2.3802136   -1.0914838    0.7657293 
H     0.9398050   -1.1999136    1.8297665 
C    -1.4957179    0.7021189   -1.2807893 
H    -1.7835434   -0.3100252   -1.6998152 
H    -1.0225008    1.2847840   -2.0433582 
H    -2.5759880    1.0713620   -1.0865203 
C    -1.5817341   -0.2784711    1.2825219 
H    -0.1765284    1.6154038    0.6007190 
H    -2.4521826    0.1271334    1.4749188 
H    -1.0806141   -0.2869945    2.2703776 
H    -1.6957750   -1.3403949    1.0172355 
