20
Compound 065, distorted structure 02
N     0.6806615   -0.3559242   -0.1945529 
B    -0.7037736    0.4943109    0.1861025 
C     1.5316976    0.2525077   -1.2246817 
H     0.9401979    0.2846223   -2.1596063 
H     2.4238014   -0.3321560   -1.4144633 
H     1.7718386    1.2579393   -0.9440092 
C     1.4697044   -0.6046459    1.0549550 
H     0.3268384   -1.3138986   -0.4875065 
H     1.7670820    0.3813657    1.4955848 
H     2.3792145   -1.1523650    0.8041322 
H     0.9087617   -1.1335018    1.8109427 
C    -1.5251067    0.6654793   -1.2117278 
H    -1.7731847   -0.3314314   -1.6705539 
H    -1.0757937    1.2391466   -2.0366349 
H    -2.5080412    1.1230308   -1.0302831 
C    -1.5686077   -0.3121295    1.2838551 
H    -0.2283934    1.5559594    0.5719583 
H    -2.5242536    0.2151142    1.3917777 
H    -1.1086508   -0.2908732    2.2952458 
H    -1.7995170   -1.3432075    0.9877176 
