20
Compound 065, distorted structure 09
N     0.6933668   -0.4459053   -0.1213584 
B    -0.7283477    0.4277893    0.1448739 
C     1.5101668    0.1462886   -1.3093608 
H     0.9267778    0.1734270   -2.1857682 
H     2.4223862   -0.2692590   -1.3593317 
H     1.7155166    1.3323779   -0.9058282 
C     1.5565423   -0.6239026    0.9661370 
H     0.4183144   -1.2905969   -0.5547092 
H     1.7772059    0.3638950    1.4715773 
H     2.3670708   -1.1059446    0.7702286 
H     0.8539838   -1.2046564    1.8486044 
C    -1.5214204    0.6063983   -1.2654723 
H    -1.8362589   -0.3389545   -1.7521510 
H    -1.0354547    1.2094168   -2.0800983 
H    -2.5275374    1.0200768   -0.9592030 
C    -1.6387753   -0.3216228    1.3626296 
H    -0.1670518    1.5472343    0.5954158 
H    -2.5987129    0.2657953    1.4751370 
H    -1.0596047   -0.3524456    2.3210971 
H    -1.8503527   -1.2816430    0.9931441 
