20
Compound 065, distorted structure 05
N     0.7273907   -0.3284966   -0.1433062 
B    -0.6997882    0.5618466    0.1599126 
C     1.5331616    0.2010074   -1.1864226 
H     0.8826423    0.3054265   -2.1341410 
H     2.3863509   -0.3385606   -1.4485433 
H     1.7202233    1.1921369   -0.9681849 
C     1.4916621   -0.6038114    1.0261852 
H     0.3677443   -1.2608465   -0.5451552 
H     1.7842144    0.3318792    1.4789610 
H     2.4136837   -1.1510883    0.8131304 
H     0.9545097   -1.1499671    1.7766351 
C    -1.5805769    0.6638883   -1.1906498 
H    -1.7116643   -0.3472163   -1.7170081 
H    -1.1186942    1.2816736   -1.9688980 
H    -2.4876398    1.1175245   -0.9701752 
C    -1.4976108   -0.2289697    1.2948716 
H    -0.2184533    1.5772911    0.5546074 
H    -2.5735437    0.1954559    1.4378600 
H    -1.1091839   -0.2617525    2.3470151 
H    -1.8237399   -1.3427784    1.0293194 
