20
Compound 065, distorted structure 03
N     0.6356951   -0.3461904   -0.1441923 
B    -0.7271741    0.5148792    0.1665737 
C     1.5295462    0.2487578   -1.2198760 
H     0.9264952    0.2322304   -2.1525177 
H     2.3875441   -0.3402667   -1.3901883 
H     1.7675459    1.2453429   -0.9346101 
C     1.4845298   -0.6023267    1.0376546 
H     0.3770829   -1.3244347   -0.4946043 
H     1.7824343    0.4069212    1.4777561 
H     2.3750404   -1.1387680    0.7926949 
H     0.9313232   -1.1823608    1.7530133 
C    -1.5335632    0.6592001   -1.2666704 
H    -1.7610667   -0.3501535   -1.6660955 
H    -1.0674237    1.2906937   -2.0362780 
H    -2.5191428    1.0741713   -1.0481823 
C    -1.5756070   -0.3023189    1.2922785 
H    -0.2254325    1.5637164    0.5254299 
H    -2.4945540    0.1662522    1.4358695 
H    -1.1092216   -0.2735963    2.2805348 
H    -1.7810938   -1.2922526    1.0315155 
