Compound 033, distorted structure 09
 OpenBabel12102416353D

 11 10  0  0  0  0  0  0  0  0999 V2000
    1.8236    0.5334    0.0503 C   0  0  0  0  0  0  0  0  0  0  0  0
    0.4728   -0.0348    0.1922 C   0  0  0  0  0  0  0  0  0  0  0  0
    0.3894   -1.2472    0.5401 O   0  0  0  0  0  0  0  0  0  0  0  0
   -0.6276    0.7605   -0.2585 O   0  0  0  0  0  0  0  0  0  0  0  0
   -1.8075    0.0337    0.0351 C   0  0  0  0  0  0  0  0  0  0  0  0
    2.3886    0.5834    0.9789 H   0  0  0  0  0  0  0  0  0  0  0  0
    1.5814    1.7292   -0.3591 H   0  0  0  0  0  0  0  0  0  0  0  0
    2.4246    0.0734   -0.7958 H   0  0  0  0  0  0  0  0  0  0  0  0
   -2.0931   -0.3426    0.8398 H   0  0  0  0  0  0  0  0  0  0  0  0
   -1.9799   -0.7521   -0.7708 H   0  0  0  0  0  0  0  0  0  0  0  0
   -2.6514    0.8352   -0.3457 H   0  0  0  0  0  0  0  0  0  0  0  0
  1  2  1  0  0  0  0
  1  6  1  0  0  0  0
  2  3  2  0  0  0  0
  4  5  1  0  0  0  0
  4  2  1  0  0  0  0
  5  9  1  0  0  0  0
  7  1  1  0  0  0  0
  8  1  1  0  0  0  0
 10  5  1  0  0  0  0
 11  5  1  0  0  0  0
M  END
$$$$
