11
Compound 033, distorted structure 03
C     1.7619087    0.6255090   -0.0059972 
C     0.4272603   -0.0989196    0.1135658 
O     0.3019071   -1.2153787    0.4895045 
O    -0.6017157    0.7644728   -0.2050177 
C    -1.8946717    0.1144519   -0.0750793 
H     2.2811107    0.5446999    0.9076337 
H     1.6221076    1.7207257   -0.3398884 
H     2.4028652    0.0687747   -0.7361580 
H    -2.0445246   -0.2904537    0.9866741 
H    -1.9449453   -0.7488436   -0.7558669 
H    -2.5810670    0.8974224   -0.3207911 
