Compound 033, distorted structure 02
 OpenBabel12102416353D

 11 10  0  0  0  0  0  0  0  0999 V2000
    1.7489    0.6650   -0.0293 C   0  0  0  0  0  0  0  0  0  0  0  0
    0.4375   -0.0904    0.1407 C   0  0  0  0  0  0  0  0  0  0  0  0
    0.3020   -1.2678    0.4503 O   0  0  0  0  0  0  0  0  0  0  0  0
   -0.6005    0.7260   -0.2043 O   0  0  0  0  0  0  0  0  0  0  0  0
   -1.9050    0.1064   -0.0739 C   0  0  0  0  0  0  0  0  0  0  0  0
    2.3056    0.5871    0.9784 H   0  0  0  0  0  0  0  0  0  0  0  0
    1.6378    1.6843   -0.3204 H   0  0  0  0  0  0  0  0  0  0  0  0
    2.3765    0.1298   -0.7190 H   0  0  0  0  0  0  0  0  0  0  0  0
   -2.0354   -0.2270    0.9590 H   0  0  0  0  0  0  0  0  0  0  0  0
   -1.9861   -0.7582   -0.7371 H   0  0  0  0  0  0  0  0  0  0  0  0
   -2.6424    0.9098   -0.3370 H   0  0  0  0  0  0  0  0  0  0  0  0
  1  2  1  0  0  0  0
  1  6  1  0  0  0  0
  2  3  2  0  0  0  0
  4  5  1  0  0  0  0
  4  2  1  0  0  0  0
  5  9  1  0  0  0  0
  7  1  1  0  0  0  0
  8  1  1  0  0  0  0
 10  5  1  0  0  0  0
 11  5  1  0  0  0  0
M  END
$$$$
