11
Compound 033, distorted structure 02
C     1.7488976    0.6650093   -0.0293222 
C     0.4374769   -0.0904270    0.1407437 
O     0.3019769   -1.2678341    0.4502723 
O    -0.6005231    0.7259981   -0.2043015 
C    -1.9049651    0.1064380   -0.0738771 
H     2.3055823    0.5871156    0.9783995 
H     1.6377661    1.6842801   -0.3204410 
H     2.3765413    0.1297697   -0.7190314 
H    -2.0353819   -0.2270161    0.9590394 
H    -1.9861015   -0.7581518   -0.7370973 
H    -2.6424495    0.9097572   -0.3369902 
