9
Compound 027, distorted structure 09
C    -2.1681737   -0.1206603    0.0373058 
C    -1.0296172   -0.3728682    0.0235199 
O    -0.0115746    0.6580476    0.0750922 
C     1.3416296    0.5222206   -0.0651069 
O     1.7848173   -0.6057035   -0.0489838 
H     1.7247206    1.4144153    0.0497720 
H    -0.4117125   -1.4083946    0.0112564 
H    -2.8772035   -1.0155037   -0.0158951 
H    -2.6441782    0.9141742    0.0165747 
