9
Compound 027, distorted structure 05
C    -2.2992960   -0.1801774    0.0007368 
C    -0.9439867   -0.3473605    0.0517898 
O    -0.0864965    0.6797004    0.0403572 
C     1.3276377    0.4657802   -0.0163536 
O     1.7381111   -0.5783231   -0.0245031 
H     1.7859502    1.4268567   -0.0024421 
H    -0.5159207   -1.3745737   -0.0378445 
H    -2.9483456   -0.9804508    0.0355394 
H    -2.7080495    0.9274418    0.0438034 
