9
Compound 027, distorted structure 01
C    -2.2369769   -0.1559213   -0.0128758 
C    -0.9513945   -0.3969948   -0.0094525 
O    -0.0677283    0.7205642    0.0224029 
C     1.2478630    0.4420730    0.0261052 
O     1.7470910   -0.6281937    0.0012710 
H     1.8173776    1.4168554   -0.0066188 
H    -0.4980333   -1.3517098    0.0105452 
H    -2.9588699   -0.9649923   -0.0009869 
H    -2.6382931    0.8410216    0.0148997 
