9
Compound 027, distorted structure 08
C    -2.1528152   -0.0953725    0.0518196 
C    -0.8152837   -0.3007545   -0.0711069 
O     0.0197196    0.8478277    0.0262927 
C     1.2210012    0.3744850    0.0458233 
O     1.6692890   -0.7382823   -0.0264581 
H     1.7376647    1.3675054    0.0821189 
H    -0.5651863   -1.2331600   -0.1160671 
H    -3.0803650   -0.9495764    0.1372121 
H    -2.6439744    0.8817097   -0.0360095 
