9
Compound 027, distorted structure 04
C    -2.2925468   -0.1577366   -0.0484980 
C    -0.9192135   -0.4126124    0.0133024 
O    -0.0265289    0.7236923   -0.0585867 
C     1.2405147    0.4741099    0.0214717 
O     1.8031726   -0.6263824   -0.0536829 
H     1.8579460    1.4289023    0.0482219 
H    -0.4838436   -1.3930396    0.0019982 
H    -2.8963882   -0.9691475    0.0319814 
H    -2.6482440    0.9207349   -0.0092413 
