9
Compound 097, distorted structure 07
C     2.2996221    0.2051066    0.2159658 
C     1.2458108    0.1154252   -0.4178828 
C    -0.0246055   -0.8250324    0.0467408 
CL   -1.5791988    0.2393279    0.0200365 
H     0.2934741   -1.1312512    1.0843474 
H    -0.0938781   -1.6477339   -0.4569486 
H     3.0206809    0.7404842   -0.2907427 
H     2.3997318    0.0951031    1.2709180 
H     1.0539493    0.3944419   -1.4655510 
