9
Compound 097, distorted structure 09
C     2.3062801    0.3319615    0.1790129 
C     1.2882975    0.1104971   -0.4924849 
C     0.0814191   -0.6555748    0.0082864 
CL   -1.3459892    0.2950245    0.1086187 
H     0.3429476   -1.1427860    1.0554849 
H    -0.1993573   -1.7174651   -0.6523588 
H     2.9955677    0.9860154   -0.1191282 
H     2.4699785    0.0664905    1.4191214 
H     1.0719490    0.2305256   -1.4977145 
