9
Compound 097, distorted structure 02
C     2.2613530    0.3406492    0.2328022 
C     1.2423398   -0.0183226   -0.4484490 
C     0.0903278   -0.7707716    0.1072451 
CL   -1.4464145    0.1891087    0.0034458 
H     0.2162099   -1.0452073    1.1423461 
H    -0.1491273   -1.6781845   -0.5202751 
H     3.0973875    0.8616110   -0.1426247 
H     2.3820649    0.0738368    1.3033015 
H     1.1716483    0.2629887   -1.5065102 
