12
Compound 090, distorted structure 05
C    -1.8994981   -1.1059380   -0.0900291 
S    -1.3232427    0.6313111    0.2082399 
H    -1.7967836   -1.4457841   -1.2693848 
H    -2.9465993   -1.1860697    0.2228901 
H    -1.2764479   -1.8269234    0.3707993 
C     0.3400049    0.5587046   -0.4960853 
C     1.2914668   -0.1937275    0.4020091 
H     0.6703249    1.5722617   -0.6635371 
H     0.3011475   -0.0563377   -1.4415572 
F     2.5174202   -0.1669724   -0.0499054 
H     0.9815280   -1.2669802    0.7207188 
H     1.4415858    0.3726234    1.3498198 
