12
Compound 090, distorted structure 06
C    -1.9833232   -1.1605943   -0.1866017 
S    -1.2928126    0.5954517    0.2540986 
H    -1.7516005   -1.4483212   -1.3024884 
H    -3.0041888   -1.2415796    0.2222191 
H    -1.2674542   -1.8898447    0.4046405 
C     0.3166467    0.4900284   -0.5249443 
C     1.3420427   -0.2629865    0.4925490 
H     0.7605170    1.4980099   -0.6398958 
H     0.3754302    0.0372404   -1.4622914 
F     2.5145454   -0.2147571   -0.2015945 
H     1.0077296   -1.1967079    0.6277059 
H     1.2934073    0.3605063    1.4067739 
