12
Compound 090, distorted structure 04
C    -1.9473968   -1.1258775   -0.1951033 
S    -1.3197914    0.5661111    0.1863163 
H    -1.7627401   -1.3658075   -1.2373458 
H    -2.9026941   -1.2693875    0.1120360 
H    -1.2832449   -1.9321788    0.3738676 
C     0.3703123    0.5295074   -0.4921666 
C     1.3337806   -0.1803318    0.5034922 
H     0.6700380    1.5733457   -0.7018038 
H     0.3416022   -0.0290676   -1.5223597 
F     2.5473360   -0.1807114   -0.0981446 
H     1.0285890   -1.2674914    0.6771474 
H     1.3370559    0.3488422    1.4377370 
