10
Compound 099, distorted structure 09
C     2.4726293   -0.1976181    0.1021934 
C     1.1426566   -0.8849058   -0.0339764 
H     2.7799556    0.2608303    0.9199199 
H     2.6059669    0.2366546   -0.9808884 
H     3.2519308   -1.2500787   -0.0639067 
C     0.1634392    0.3560976   -0.0171834 
H     0.8930013   -1.5284245    0.8311639 
H     0.7944644   -1.5492986   -0.9092000 
O     0.2379426    1.5866299    0.0400393 
CL   -1.7368829   -0.2774417    0.1132003 
