10
Compound 099 optimized with r2SCAN-3c
C     2.4904536   -0.2951206   -0.0003850 
C     1.0532686   -0.8015438    0.0004296 
H     2.6904698    0.3176433    0.8821426 
H     2.6899800    0.3161074   -0.8840893 
H     3.1820059   -1.1418933    0.0001536 
C     0.0527393    0.3162685    0.0004528 
H     0.8340757   -1.4295523    0.8731196 
H     0.8332896   -1.4302717   -0.8715383 
O     0.2541221    1.4822670    0.0018077 
Cl   -1.6759648   -0.3265104   -0.0019741 
