10
Compound 099, distorted structure 08
C     2.4534849   -0.2846331    0.0639597 
C     1.1772513   -0.9290768   -0.0267732 
H     2.6355416    0.3804724    0.9768188 
H     2.6982039    0.2337080   -0.9039285 
H     3.3135405   -1.2209157   -0.0453852 
C     0.1399653    0.3983857   -0.0147000 
H     0.7535916   -1.3292610    0.8736798 
H     0.9102073   -1.3142043   -0.9144365 
O     0.2421545    1.4977865   -0.0674656 
CL   -1.6395093   -0.2611564   -0.0149894 
