10
Compound 099, distorted structure 02
C     2.4959213   -0.3213129    0.0176177 
C     1.0670567   -0.8229910   -0.0001828 
H     2.6793155    0.3232194    0.8696285 
H     2.6833325    0.3400891   -0.9079886 
H     3.1527550   -1.1461487   -0.0140997 
C     0.0289001    0.3123697   -0.0155061 
H     0.8321851   -1.4294961    0.8972648 
H     0.8082846   -1.4435481   -0.8583757 
O     0.2720791    1.4660651    0.0234053 
CL   -1.7024545   -0.3137217   -0.0122481 
