12
Compound 016, distorted structure 06
C     1.0893226   -1.2629614   -0.1186598 
C     0.4589961   -0.0422909    0.3331771 
H     0.9930328   -1.2552321   -1.2712818 
H     0.7009462   -2.2139843    0.2206838 
H     2.1244987   -1.3164587    0.0625340 
C     1.1082716    1.2103667   -0.2055343 
H     0.6615126    2.1767015    0.2116707 
H     1.0442928    1.2981777   -1.3056148 
H     2.1208750    1.2797236    0.0728397 
H     0.5897142    0.0104377    1.4358232 
C    -0.9258124   -0.0521542    0.1759117 
N    -2.1399203   -0.0654177   -0.1562548 
