12
Compound 016, distorted structure 02
C     1.1189187   -1.2647751   -0.1851064 
C     0.4784263   -0.0119804    0.3887665 
H     0.9899253   -1.2832103   -1.2271396 
H     0.6304274   -2.1451879    0.2509546 
H     2.1890611   -1.2954314    0.0670968 
C     1.0964703    1.2807568   -0.1742168 
H     0.6567269    2.1794142    0.2598919 
H     1.0093580    1.3256452   -1.2734809 
H     2.1558717    1.3053905    0.1017725 
H     0.5498837    0.0064787    1.4708712 
C    -0.9725302    0.0224230    0.1385698 
N    -2.1256975    0.0259056   -0.1354822 
