12
Compound 016, distorted structure 07
C     1.0695211   -1.3439317   -0.0868363 
C     0.5234755   -0.0602358    0.4079847 
H     1.0594191   -1.3204638   -1.1918799 
H     0.6774362   -2.1760969    0.1883214 
H     2.1246026   -1.2232967    0.0585221 
C     1.0582354    1.2626339   -0.2046607 
H     0.7139719    2.1798924    0.2732900 
H     0.9573875    1.2694107   -1.1753058 
H     2.1572403    1.3262069    0.0993858 
H     0.6049977    0.0048696    1.5161984 
C    -0.9115820    0.0444676    0.1707938 
N    -2.0386922   -0.0135407   -0.1738169 
