12
Compound 016, distorted structure 01
C     1.1172798   -1.2682175   -0.1790715 
C     0.4467918    0.0166427    0.3815054 
H     1.0138401   -1.3148099   -1.2422370 
H     0.6351237   -2.1536979    0.2685118 
H     2.1708765   -1.2633192    0.1093730 
C     1.1185578    1.2554119   -0.1641419 
H     0.6640629    2.1732525    0.2687331 
H     1.0281136    1.2969972   -1.2435968 
H     2.1583835    1.2923499    0.0893733 
H     0.5599996   -0.0170281    1.4751113 
C    -0.9911901    0.0183591    0.1152872 
N    -2.1190177    0.0165934   -0.1368264 
