12
Compound 016, distorted structure 09
C     1.1183222   -1.2285210   -0.1205042 
C     0.3777833    0.0241503    0.3126940 
H     1.0503764   -1.2665598   -1.2981067 
H     0.7041216   -2.2499093    0.2548420 
H     2.2458787   -1.3468000    0.1403383 
C     1.1084679    1.1983308   -0.2222193 
H     0.6581038    2.1845442    0.2749203 
H     0.9402724    1.3629975   -1.1731835 
H     2.1171543    1.3579242    0.1537293 
H     0.5591646    0.0220881    1.5228220 
C    -0.9265315    0.0446998    0.1743272 
N    -2.1425523    0.0227449   -0.0901148 
