Compound 089 optimized with r2SCAN-3c
 OpenBabel12102416353D

 12 11  0  0  0  0  0  0  0  0999 V2000
   -1.2247    1.3010    0.2000 C   0  0  0  0  0  0  0  0  0  0  0  0
   -0.5325    0.1078   -0.4510 C   0  0  0  0  0  0  0  0  0  0  0  0
   -2.3025    1.2495    0.0126 H   0  0  0  0  0  0  0  0  0  0  0  0
   -0.8525    2.2493   -0.1987 H   0  0  0  0  0  0  0  0  0  0  0  0
   -1.0679    1.2959    1.2843 H   0  0  0  0  0  0  0  0  0  0  0  0
   -1.0604   -1.2182    0.0798 C   0  0  0  0  0  0  0  0  0  0  0  0
    1.2884    0.3019   -0.1251 S   0  0  0  0  0  0  0  0  0  0  0  0
   -0.6713    0.1585   -1.5374 H   0  0  0  0  0  0  0  0  0  0  0  0
   -2.1361   -1.2996   -0.1220 H   0  0  0  0  0  0  0  0  0  0  0  0
   -0.9036   -1.2902    1.1607 H   0  0  0  0  0  0  0  0  0  0  0  0
   -0.5637   -2.0701   -0.3942 H   0  0  0  0  0  0  0  0  0  0  0  0
    1.6824   -0.8046   -0.7794 H   0  0  0  0  0  0  0  0  0  0  0  0
  1  5  1  0  0  0  0
  2  7  1  0  0  0  0
  2  6  1  0  0  0  0
  2  1  1  0  0  0  0
  3  1  1  0  0  0  0
  4  1  1  0  0  0  0
  6 10  1  0  0  0  0
  8  2  1  0  0  0  0
  9  6  1  0  0  0  0
 11  6  1  0  0  0  0
 12  7  1  0  0  0  0
M  END
$$$$
