12
Compound 089, distorted structure 08
C    -1.3079810    1.2881163    0.1026351 
C    -0.5882366    0.1458124   -0.5390343 
H    -2.3431451    1.3545678    0.0986110 
H    -0.8368043    2.1698217   -0.2368290 
H    -1.1397434    1.2923685    1.2071777 
C    -1.0327694   -1.1333484    0.0157675 
S     1.3623567    0.3767619   -0.2093479 
H    -0.6092015    0.0836464   -1.4584129 
H    -2.1983619   -1.3697956   -0.1061933 
H    -0.8201609   -1.3694727    1.1103398 
H    -0.5480716   -2.1725716   -0.5001364 
H     1.7110319   -0.8218290   -0.8402952 
