12
Compound 089, distorted structure 06
C    -1.1873182    1.3762502    0.2025401 
C    -0.5279241    0.0967130   -0.4422135 
H    -2.3128577    1.2797217   -0.0051433 
H    -0.7671304    2.1669524   -0.1706946 
H    -1.0427617    1.3327249    1.3673365 
C    -1.0529063   -1.2063674    0.0338467 
S     1.2169166    0.2740405   -0.0593390 
H    -0.7691819    0.2026561   -1.4982748 
H    -2.1450927   -1.3604375   -0.1196052 
H    -0.9876475   -1.1947262    1.1906572 
H    -0.4717159   -2.1084448   -0.3411495 
H     1.7427733   -0.8733123   -0.8687930 
