12
Compound 089, distorted structure 07
C    -1.1564959    1.3303966    0.2134127 
C    -0.5776432    0.0803279   -0.4623572 
H    -2.3409451    1.1633380    0.0612598 
H    -0.8447850    2.1686013   -0.2083923 
H    -0.9929838    1.3181460    1.3540123 
C    -0.9786909   -1.2013397    0.0772854 
S     1.2028524    0.2213818   -0.1287397 
H    -0.7213767    0.1110467   -1.4772505 
H    -2.1564160   -1.3328209   -0.0584149 
H    -0.9021209   -1.3594808    1.0767753 
H    -0.5257565   -2.0694908   -0.3256593 
H     1.6951105   -0.8404681   -0.7732300 
