12
Compound 089, distorted structure 04
C    -1.2610283    1.2932617    0.1349277 
C    -0.5825288    0.1628792   -0.5162743 
H    -2.2833746    1.1900739    0.0046433 
H    -0.8968192    2.2928058   -0.1477396 
H    -1.0437912    1.2435200    1.2240540 
C    -1.0026220   -1.2213902    0.0456383 
S     1.2802285    0.2746882   -0.0836312 
H    -0.6740712    0.2024047   -1.5872170 
H    -2.1906340   -1.2352271   -0.0614911 
H    -0.9508490   -1.2625545    1.1145057 
H    -0.5520810   -2.0369157   -0.3617072 
H     1.7237744   -0.7593311   -0.7601603 
