14
Compound 062, distorted structure 03
C    -2.1085784   -0.0029048    0.0663782 
C    -0.7200750    0.4120072   -0.1852516 
H    -2.8844163    0.7663446   -0.2174771 
H    -2.2890041   -0.3072126    1.1014732 
H    -2.4153522   -0.9327082   -0.5834544 
C     0.3319379   -0.7296938    0.1687687 
H    -0.5020474    1.3239884    0.3000151 
H    -0.5997329    0.5928712   -1.2542437 
C     1.8119091   -0.2962264   -0.1312540 
H     0.0279262   -1.6545447   -0.3314698 
H     0.2392787   -0.8802827    1.2660956 
LI    2.1872055    1.5680155    0.4888973 
H     1.9625603   -0.3205635   -1.1734583 
H     2.4683920   -1.0900591    0.2386953 
