14
Compound 062, distorted structure 05
C    -2.1415342   -0.0136663   -0.0394326 
C    -0.6794623    0.3109675   -0.2844735 
H    -2.9055988    0.7833748   -0.1966968 
H    -2.3302280   -0.2636358    1.0113257 
H    -2.4349441   -0.9278223   -0.5590980 
C     0.2932903   -0.6851187    0.1996417 
H    -0.5263901    1.2858571    0.4124479 
H    -0.5745871    0.6220170   -1.3178296 
C     1.7406178   -0.3460425   -0.0711893 
H    -0.0551315   -1.6976721   -0.3118692 
H     0.1393020   -0.9688359    1.2732269 
LI    2.2738337    1.5462203    0.4754420 
H     1.8857731   -0.3334691   -1.2852838 
H     2.5210101   -1.0718089    0.3253713 
