14
Compound 062, distorted structure 04
C    -2.2062429   -0.0965074    0.0907658 
C    -0.7442623    0.3503262   -0.2283770 
H    -2.8042346    0.7221599   -0.1985103 
H    -2.3218434   -0.3297206    1.1456899 
H    -2.3905839   -0.9389761   -0.6139008 
C     0.3005620   -0.6436918    0.2194363 
H    -0.5390367    1.3375233    0.2870480 
H    -0.6043451    0.5706317   -1.2583855 
C     1.7465655   -0.2680883   -0.1891220 
H     0.0295776   -1.6934794   -0.2479581 
H     0.2254501   -0.9336726    1.2030803 
LI    2.2019580    1.5674981    0.4726341 
H     1.9308109   -0.3980433   -1.2226363 
H     2.4514895   -1.0259195    0.3470247 
