14
Compound 062, distorted structure 02
C    -2.1817612   -0.0593811    0.0075263 
C    -0.6881006    0.3412491   -0.2136830 
H    -2.8658777    0.7095430   -0.2712051 
H    -2.3009489   -0.3063274    1.0884562 
H    -2.4036643   -0.9407820   -0.5438772 
C     0.2937016   -0.6974358    0.2126220 
H    -0.4853638    1.3076270    0.3510178 
H    -0.5568201    0.5904547   -1.3043570 
C     1.7934241   -0.2836547   -0.1028164 
H     0.0394696   -1.6493384   -0.3220409 
H     0.2292440   -0.8707815    1.2522834 
LI    2.2261351    1.5716387    0.4585300 
H     1.9326357   -0.3405122   -1.2249880 
H     2.4431213   -1.0755011    0.3117174 
