14
Compound 062, distorted structure 07
C    -2.0810580    0.0202342    0.1031903 
C    -0.6308283    0.3691911   -0.1559810 
H    -2.9524039    0.8169920   -0.2677345 
H    -2.3989971   -0.3266902    1.1668047 
H    -2.4720457   -0.9059947   -0.5707787 
C     0.3140266   -0.7394996    0.2197837 
H    -0.4204842    1.3799237    0.3758772 
H    -0.4702487    0.6153530   -1.3592136 
C     1.8282872   -0.2038867   -0.0952898 
H     0.0707362   -1.6964236   -0.2929217 
H     0.1794018   -0.9592020    1.3261658 
LI    2.3027622    1.5232955    0.4410101 
H     1.9251359   -0.3706406   -1.1218336 
H     2.5471589   -0.9664462    0.2157480 
