14
Compound 062, distorted structure 01
C    -2.1562513   -0.0396057    0.0392429 
C    -0.7088091    0.3707266   -0.2002352 
H    -2.8580451    0.7310946   -0.2682004 
H    -2.3139397   -0.3074232    1.0730695 
H    -2.4111794   -0.9517396   -0.5694727 
C     0.3287618   -0.7167891    0.1979098 
H    -0.4953828    1.2877067    0.3416449 
H    -0.5850209    0.6130392   -1.2651310 
C     1.7713530   -0.3092664   -0.1209859 
H     0.0322295   -1.6530584   -0.3171672 
H     0.2114368   -0.9053966    1.2695667 
LI    2.2150371    1.5559456    0.4509037 
H     1.9238666   -0.3708257   -1.2159174 
H     2.4412233   -1.0508848    0.2720681 
