Compound 062, distorted structure 06
 OpenBabel12102416353D

 14 12  0  0  0  0  0  0  0  0999 V2000
   -2.2200   -0.0398   -0.0458 C   0  0  0  0  0  0  0  0  0  0  0  0
   -0.6868    0.3555   -0.1637 C   0  0  0  0  0  0  0  0  0  0  0  0
   -2.9346    0.6690   -0.3209 H   0  0  0  0  0  0  0  0  0  0  0  0
   -2.2604   -0.3672    1.0252 H   0  0  0  0  0  0  0  0  0  0  0  0
   -2.4487   -0.9887   -0.6304 H   0  0  0  0  0  0  0  0  0  0  0  0
    0.3846   -0.7462    0.1284 C   0  0  0  0  0  0  0  0  0  0  0  0
   -0.5608    1.3409    0.2760 H   0  0  0  0  0  0  0  0  0  0  0  0
   -0.5738    0.6716   -1.2162 H   0  0  0  0  0  0  0  0  0  0  0  0
    1.7147   -0.3689   -0.0887 C   0  0  0  0  0  3  0  0  0  0  0  0
    0.0048   -1.5885   -0.2736 H   0  0  0  0  0  0  0  0  0  0  0  0
    0.2204   -0.8194    1.2891 H   0  0  0  0  0  0  0  0  0  0  0  0
    2.1910    1.4850    0.4423 *   0  0  0  0  0  0  0  0  0  0  0  0
    1.8896   -0.3550   -1.1560 H   0  0  0  0  0  0  0  0  0  0  0  0
    2.5073   -1.0619    0.2314 H   0  0  0  0  0  0  0  0  0  0  0  0
  1  4  1  0  0  0  0
  2  1  1  0  0  0  0
  2  6  1  0  0  0  0
  2  7  1  0  0  0  0
  3  1  1  0  0  0  0
  5  1  1  0  0  0  0
  6 11  1  0  0  0  0
  8  2  1  0  0  0  0
  9  6  1  0  0  0  0
  9 14  1  0  0  0  0
 10  6  1  0  0  0  0
 13  9  1  0  0  0  0
M  END
$$$$
