15
Compound 007, distorted structure 05
C     2.1161854    0.0739799   -0.0537589 
C     0.7658174    0.7127024    0.0160932 
C    -0.4648061    0.0364475    0.0079734 
C    -0.5567518   -1.4298479   -0.0458537 
C    -1.7098842    0.7854119    0.0400923 
H     2.6459794    0.4489630   -0.9384744 
H     2.1230262   -0.9578702   -0.0392660 
H     2.7121404    0.4800473    0.9105098 
H     0.7068790    1.7391310    0.0276684 
H     0.3517148   -1.9750658    0.0064972 
H    -1.2247365   -1.8347541   -0.8554383 
H    -1.1350631   -1.8463625    0.8571637 
H    -2.3665732    0.5574117   -0.8627958 
H    -1.5694025    1.8626170   -0.0254752 
H    -2.3775784    0.4633692    0.8653884 
