15
Compound 007, distorted structure 02
C     2.1187390    0.1097624    0.0117157 
C     0.7360858    0.6953765   -0.0051152 
C    -0.4587918    0.0222668    0.0068749 
C    -0.6135708   -1.4818636    0.0092902 
C    -1.7409499    0.7546000   -0.0089830 
H     2.6553752    0.4480071   -0.8941110 
H     2.1204440   -0.9964759   -0.0161650 
H     2.6533038    0.4338919    0.8884551 
H     0.6673346    1.7560662    0.0166150 
H     0.3601922   -2.0111315   -0.0241757 
H    -1.1801607   -1.7937703   -0.8621809 
H    -1.1316867   -1.8039548    0.8770557 
H    -2.3463479    0.5236120   -0.8728947 
H    -1.6189771    1.8555740    0.0272583 
H    -2.3397279    0.5078220    0.9008730 
