15
Compound 007, distorted structure 09
C     2.1797921    0.2028067   -0.0223944 
C     0.7574416    0.6281701   -0.0276353 
C    -0.3955616    0.0354721    0.0832669 
C    -0.6184423   -1.4952837    0.0870861 
C    -1.7305666    0.8516971    0.0641805 
H     2.6696588    0.5558663   -0.9080217 
H     2.0189096   -0.9060723    0.0666556 
H     2.6267109    0.4003054    0.8892764 
H     0.7876377    1.6698943   -0.0589950 
H     0.2461654   -2.0581176    0.0694461 
H    -1.2633972   -1.7501936   -0.9655527 
H    -1.1971374   -1.7225881    0.8696213 
H    -2.2603275    0.5543699   -0.7796116 
H    -1.6554223    1.8018930   -0.0122142 
H    -2.4338780    0.5444054    0.9171120 
