9
Compound 026, distorted structure 01
C    -1.1871132   -1.2152756   -0.0003104 
C    -0.4671201    0.1163939    0.0140739 
H    -0.9099294   -1.7822607    0.8813512 
H    -0.9232578   -1.8308866   -0.8791559 
H    -2.2604197   -1.0471983    0.0231656 
C     0.9551056    0.0344657   -0.0193488 
C     2.1793969   -0.0678727   -0.0001238 
H     3.2411917   -0.0844795   -0.0083628 
O    -1.0510426    1.1859120    0.0040601 
