Compound 026 optimized with r2SCAN-3c
 OpenBabel12102416353D

  9  8  0  0  0  0  0  0  0  0999 V2000
   -1.2011   -1.2236    0.0000 C   0  0  0  0  0  0  0  0  0  0  0  0
   -0.4711    0.0938   -0.0000 C   0  0  0  0  0  0  0  0  0  0  0  0
   -0.9103   -1.8084    0.8800 H   0  0  0  0  0  0  0  0  0  0  0  0
   -0.9105   -1.8084   -0.8800 H   0  0  0  0  0  0  0  0  0  0  0  0
   -2.2780   -1.0481    0.0002 H   0  0  0  0  0  0  0  0  0  0  0  0
    0.9788    0.0087   -0.0000 C   0  0  0  0  0  0  0  0  0  0  0  0
    2.1829   -0.0642    0.0000 C   0  0  0  0  0  0  0  0  0  0  0  0
    3.2467   -0.1054    0.0000 H   0  0  0  0  0  0  0  0  0  0  0  0
   -1.0299    1.1734   -0.0001 O   0  0  0  0  0  0  0  0  0  0  0  0
  1  5  1  0  0  0  0
  1  3  1  0  0  0  0
  2  1  1  0  0  0  0
  4  1  1  0  0  0  0
  6  2  1  0  0  0  0
  6  7  3  0  0  0  0
  7  8  1  0  0  0  0
  9  2  2  0  0  0  0
M  END
$$$$
