Compound 026, distorted structure 03
 OpenBabel12102416353D

  9  8  0  0  0  0  0  0  0  0999 V2000
   -1.1767   -1.2347   -0.0425 C   0  0  0  0  0  0  0  0  0  0  0  0
   -0.5080    0.0684    0.0199 C   0  0  0  0  0  0  0  0  0  0  0  0
   -0.8898   -1.7879    0.8994 H   0  0  0  0  0  0  0  0  0  0  0  0
   -0.9107   -1.7674   -0.9104 H   0  0  0  0  0  0  0  0  0  0  0  0
   -2.2745   -1.0859    0.0064 H   0  0  0  0  0  0  0  0  0  0  0  0
    0.9918   -0.0010    0.0215 C   0  0  0  0  0  0  0  0  0  0  0  0
    2.2092   -0.0939   -0.0169 C   0  0  0  0  0  0  0  0  0  0  0  0
    3.2533   -0.0981    0.0405 H   0  0  0  0  0  0  0  0  0  0  0  0
   -0.9995    1.1307    0.0329 O   0  0  0  0  0  0  0  0  0  0  0  0
  1  5  1  0  0  0  0
  1  2  1  0  0  0  0
  1  3  1  0  0  0  0
  2  6  1  0  0  0  0
  2  9  2  0  0  0  0
  4  1  1  0  0  0  0
  7  6  3  0  0  0  0
  7  8  1  0  0  0  0
M  END
$$$$
