9
Compound 026, distorted structure 04
C    -1.2312677   -1.1998550    0.0308296 
C    -0.4842491    0.0854914    0.0593230 
H    -0.9447386   -1.7580104    0.9233201 
H    -0.8400531   -1.8619602   -0.9026077 
H    -2.3350078   -1.0950918    0.0228710 
C     0.9509118    0.0582377    0.0426060 
C     2.1409187   -0.0441598   -0.0713058 
H     3.2867410   -0.1567414    0.0016344 
O    -1.0113549    1.1497316    0.0056411 
