9
Compound 026, distorted structure 08
C    -1.1231940   -1.2569129   -0.1634088 
C    -0.4223665    0.0102656   -0.1120804 
H    -1.0187025   -1.7494578    0.9907562 
H    -0.7798654   -1.8574593   -0.8658801 
H    -2.1666717   -1.0182051    0.1001433 
C     0.9978805   -0.1007512    0.1444215 
C     2.2405302    0.0418993   -0.0741478 
H     3.4006846   -0.1267855    0.0290917 
O    -1.1223329    1.0298005    0.1157555 
