9
Compound 026, distorted structure 09
C    -1.2448927   -1.1031923    0.1630222 
C    -0.4733978    0.0997045    0.0703027 
H    -0.9168651   -1.8604201    0.9790370 
H    -0.8048037   -1.7807064   -0.8034747 
H    -2.4623540   -0.9176217   -0.0469564 
C     0.8230012    0.1399127    0.0654134 
C     2.0348354    0.1184148   -0.0696241 
H     3.2638692   -0.1010738   -0.0659102 
O    -1.1454579    1.1994067    0.1975198 
