15
Compound 093, distorted structure 09
C     0.0227272    1.0724295   -0.7909197 
N     1.3168094    0.0212269   -0.4964062 
C     0.7274317   -1.3130996   -0.6128246 
C    -0.7434792   -1.2923922    0.2340261 
H     1.4605839   -1.9558562   -0.2284841 
H     0.4214862   -1.5230209   -1.5749362 
S    -1.4901498    0.3654316    0.2740079 
H    -0.4194984   -1.3996392    1.2687481 
H    -1.4735183   -2.0838230   -0.0241353 
H    -0.2065990    1.0952897   -1.8159181 
H     0.3731284    2.0312929   -0.3165130 
C     1.7319439    0.4326606    0.7747069 
H     2.2687108    1.2988299    0.7668735 
H     2.6305965   -0.2201527    0.9139774 
H     1.0343655    0.3617173    1.7751663 
