15
Compound 093, distorted structure 01
C     0.1029359    1.0439073   -0.7410515 
N     1.1860289    0.1474582   -0.4621935 
C     0.6361461   -1.2144217   -0.5385520 
C    -0.6547451   -1.2719310    0.3313423 
H     1.3725225   -1.9332115   -0.2351780 
H     0.3452030   -1.4003793   -1.6001890 
S    -1.4395070    0.4111829    0.1942936 
H    -0.4297749   -1.4939387    1.3752720 
H    -1.3425006   -2.0503672   -0.0683832 
H    -0.1219211    1.0437411   -1.8025729 
H     0.3093681    2.0774646   -0.4231829 
C     1.8232450    0.3916607    0.8479026 
H     2.2696341    1.4034530    0.8204965 
H     2.5875166   -0.3326599    1.0030202 
H     1.1095210    0.3876081    1.6887514 
