15
Compound 093, distorted structure 02
C     0.0942109    1.0385292   -0.7268124 
N     1.1683597    0.1715901   -0.4332791 
C     0.6374525   -1.1837834   -0.5609386 
C    -0.6622374   -1.2839977    0.2949090 
H     1.3451585   -1.9299177   -0.2260899 
H     0.3836156   -1.3752812   -1.6021943 
S    -1.4127907    0.4205097    0.1629824 
H    -0.4244652   -1.4792467    1.3588180 
H    -1.3741451   -2.0093705   -0.0482299 
H    -0.1302964    1.0444869   -1.7928225 
H     0.3294860    2.0643993   -0.3875368 
C     1.7972844    0.3891899    0.8651534 
H     2.3079136    1.3985843    0.8495693 
H     2.5806626   -0.3544413    1.0293082 
H     1.1234403    0.3490792    1.6634698 
