15
Compound 093, distorted structure 06
C     0.1437376    1.0503168   -0.6868142 
N     1.1227655    0.0968592   -0.4374835 
C     0.5635144   -1.1685299   -0.5011262 
C    -0.6759379   -1.2477154    0.3397198 
H     1.3950073   -1.9663862   -0.2607705 
H     0.4126071   -1.3913292   -1.5487501 
S    -1.3609387    0.3481457    0.2266309 
H    -0.3943498   -1.5142512    1.3032750 
H    -1.4169668   -2.1037806   -0.0443382 
H    -0.1956231    0.9891742   -1.7816910 
H     0.3958733    2.1402135   -0.4518584 
C     1.8459325    0.4361681    0.8556683 
H     2.3278198    1.4361994    0.8291744 
H     2.6479536   -0.3622665    0.9488843 
H     1.1183252    0.3827859    1.6586803 
