15
Compound 093, distorted structure 08
C    -0.0066456    0.9659221   -0.6205342 
N     1.1650537    0.1513257   -0.4662375 
C     0.5798002   -1.1092518   -0.5923081 
C    -0.6536952   -1.2311215    0.2920694 
H     1.2698443   -1.9388407   -0.2151117 
H     0.2419183   -1.3069681   -1.5445486 
S    -1.4654810    0.4468649    0.0779961 
H    -0.3944301   -1.5443649    1.4654954 
H    -1.2764809   -1.9821208   -0.1366487 
H    -0.0413167    1.1400941   -1.8417946 
H     0.2026308    2.1275912   -0.2911960 
C     1.8173729    0.4121686    0.9115740 
H     2.3553750    1.5094385    0.8913663 
H     2.6502641   -0.2459842    1.0306632 
H     1.1119066    0.2729434    1.7234651 
