15
Compound 093, distorted structure 07
C     0.0255777    1.1051461   -0.7168456 
N     1.2191246    0.1835062   -0.4342207 
C     0.6793432   -1.2055776   -0.5817940 
C    -0.5804353   -1.2524441    0.3756780 
H     1.3100579   -1.9051865   -0.2819655 
H     0.4266741   -1.4387827   -1.5746926 
S    -1.4906938    0.4547552    0.1209182 
H    -0.4824636   -1.5481090    1.4119265 
H    -1.3561470   -2.1140902   -0.1407545 
H    -0.1323869    1.0682246   -1.8056769 
H     0.2685970    2.0298372   -0.3324805 
C     1.8116098    0.4022070    0.8707575 
H     2.3065827    1.4647281    0.8519103 
H     2.6885823   -0.3926174    1.0048191 
H     1.1359502    0.4406016    1.6189342 
